# created with PyMOL 3.1.3.1
@<TRIPOS>MOLECULE
predicted
32 37 1                 
SMALL
USER_CHARGES
@<TRIPOS>ATOM
1	CL27	13.575	-3.375	22.559	Cl	1	LIG1	0.000	
2	 O25	10.545	2.376	23.967	O.2	1	LIG1	0.000	
3	 O26	8.806	0.303	21.206	O.2	1	LIG1	0.000	
4	 N28	6.386	-0.896	17.842	N.2	1	LIG1	0.000	
5	 C29	10.084	1.247	23.903	C.2	1	LIG1	0.000	
6	 C30	8.391	-0.698	21.761	C.2	1	LIG1	0.000	
7	 C31	7.061	-1.311	18.889	C.2	1	LIG1	0.000	
8	 C32	13.103	-0.856	23.313	C.2	1	LIG1	0.000	
9	 C33	12.313	0.224	23.599	C.2	1	LIG1	0.000	
10	 C34	11.155	-2.188	22.834	C.2	1	LIG1	0.000	
11	 C35	3.021	0.986	20.716	C.2	1	LIG1	0.000	
12	 C36	3.688	0.537	21.830	C.2	1	LIG1	0.000	
13	 C37	12.541	-2.050	22.928	C.2	1	LIG1	0.000	
14	 C38	10.941	0.097	23.558	C.2	1	LIG1	0.000	
15	 C39	10.345	-1.124	23.218	C.2	1	LIG1	0.000	
16	 C40	5.237	-0.237	18.005	C.2	1	LIG1	0.000	
17	 C41	3.530	0.744	19.448	C.2	1	LIG1	0.000	
18	 C42	4.839	-0.162	21.684	C.2	1	LIG1	0.000	
19	 C43	6.617	-1.104	20.198	C.2	1	LIG1	0.000	
20	 C44	4.715	0.042	19.279	C.2	1	LIG1	0.000	
21	 C45	5.393	-0.397	20.409	C.2	1	LIG1	0.000	
22	 N46	7.383	-1.458	21.275	N.pl3	1	LIG1	0.000	
23	 N47	8.711	1.058	24.083	N.pl3	1	LIG1	0.000	
24	 C48	7.811	2.150	24.383	C.3	1	LIG1	0.000	
25	 C49	8.062	-3.270	24.371	C.3	1	LIG1	0.000	
26	 C50	7.219	-2.643	22.057	C.3	1	LIG1	0.000	
27	 C51	8.199	-0.314	24.187	C.3	1	LIG1	0.000	
28	 C52	8.112	3.422	23.518	C.3	1	LIG1	0.000	
29	 C53	6.559	2.004	23.470	C.3	1	LIG1	0.000	
30	 C54	8.320	-2.591	23.103	C.3	1	LIG1	0.000	
31	 C55	8.841	-1.210	23.103	C.3	1	LIG1	0.000	
32	 N56	7.020	3.153	22.442	N.3	1	LIG1	0.000	
@<TRIPOS>BOND
1 4 16 ar
2 2 5 2
3 5 14 1
4 3 6 2
5 6 31 1
6 4 7 ar
7 8 13 ar
8 8 9 ar
9 10 15 ar
10 11 12 ar
11 12 18 ar
12 1 13 1
13 10 13 ar
14 9 14 ar
15 14 15 ar
16 16 20 ar
17 11 17 ar
18 18 21 ar
19 7 19 ar
20 19 21 ar
21 17 20 ar
22 20 21 ar
23 6 22 1
24 19 22 1
25 5 23 1
26 23 24 1
27 24 28 1
28 24 29 1
29 25 30 1
30 22 26 1
31 23 27 1
32 28 32 1
33 26 30 1
34 30 31 1
35 15 31 1
36 27 31 1
37 29 32 1
@<TRIPOS>SUBSTRUCTURE
1	LIG1	1	GROUP	1 C	LIG
