# created with PyMOL 3.1.3.1
@<TRIPOS>MOLECULE
predicted
34 39 1                 
SMALL
USER_CHARGES
@<TRIPOS>ATOM
1	 O22	10.671	1.924	24.450	O.2	1	LIG1	0.000	
2	 O23	8.952	0.126	21.395	O.2	1	LIG1	0.000	
3	 N25	5.971	2.538	23.999	N.2	1	LIG1	0.000	
4	 N26	6.505	-0.845	17.894	N.2	1	LIG1	0.000	
5	 O27	5.617	3.173	22.844	O.2	1	LIG1	0.000	
6	 C28	10.211	0.790	24.266	C.2	1	LIG1	0.000	
7	 C29	8.501	-0.901	21.860	C.2	1	LIG1	0.000	
8	 C30	7.174	-1.299	18.943	C.2	1	LIG1	0.000	
9	 C31	7.241	2.306	23.966	C.2	1	LIG1	0.000	
10	 C32	6.661	3.337	22.113	C.2	1	LIG1	0.000	
11	 C33	7.737	2.805	22.806	C.2	1	LIG1	0.000	
12	 C34	13.231	-1.212	23.343	C.2	1	LIG1	0.000	
13	 C35	12.447	-0.176	23.774	C.2	1	LIG1	0.000	
14	 C36	11.272	-2.488	22.734	C.2	1	LIG1	0.000	
15	 C37	3.077	0.877	20.791	C.2	1	LIG1	0.000	
16	 C38	3.736	0.388	21.899	C.2	1	LIG1	0.000	
17	 C39	12.665	-2.362	22.833	C.2	1	LIG1	0.000	
18	 C40	11.064	-0.297	23.740	C.2	1	LIG1	0.000	
19	 C41	10.455	-1.474	23.254	C.2	1	LIG1	0.000	
20	 C42	5.341	-0.213	18.061	C.2	1	LIG1	0.000	
21	 C43	3.603	0.671	19.523	C.2	1	LIG1	0.000	
22	 C44	4.914	-0.276	21.747	C.2	1	LIG1	0.000	
23	 C45	6.711	-1.140	20.242	C.2	1	LIG1	0.000	
24	 C46	4.800	0.010	19.344	C.2	1	LIG1	0.000	
25	 C47	5.481	-0.468	20.475	C.2	1	LIG1	0.000	
26	 N48	7.456	-1.578	21.320	N.pl3	1	LIG1	0.000	
27	 N49	8.848	0.554	24.473	N.pl3	1	LIG1	0.000	
28	 C50	8.011	1.564	25.052	C.3	1	LIG1	0.000	
29	 C51	8.186	-3.741	24.193	C.3	1	LIG1	0.000	
30	 C52	7.246	-2.820	22.009	C.3	1	LIG1	0.000	
31	 C53	8.289	-0.790	24.331	C.3	1	LIG1	0.000	
32	 C54	8.387	-2.928	22.985	C.3	1	LIG1	0.000	
33	 C55	8.955	-1.545	23.150	C.3	1	LIG1	0.000	
34	 F24	13.468	-3.346	22.421	 F	1	LIG1	0.000	
@<TRIPOS>BOND
1 4 20 ar
2 3 5 ar
3 1 6 2
4 6 18 1
5 2 7 2
6 7 33 1
7 4 8 ar
8 3 9 ar
9 9 11 ar
10 5 10 ar
11 10 11 ar
12 12 17 ar
13 12 13 ar
14 14 19 ar
15 15 16 ar
16 16 22 ar
17 14 17 ar
18 17 34 1
19 13 18 ar
20 18 19 ar
21 20 24 ar
22 15 21 ar
23 22 25 ar
24 8 23 ar
25 23 25 ar
26 21 24 ar
27 24 25 ar
28 7 26 1
29 23 26 1
30 6 27 1
31 27 28 1
32 9 28 1
33 29 32 1
34 26 30 1
35 27 31 1
36 30 32 1
37 32 33 1
38 19 33 1
39 31 33 1
@<TRIPOS>SUBSTRUCTURE
1	LIG1	1	GROUP	1 C	LIG
