# created with PyMOL 3.1.3.1
@<TRIPOS>MOLECULE
predicted
22 24 1                 
SMALL
USER_CHARGES
@<TRIPOS>ATOM
1	CL17	13.938	-0.687	21.362	Cl	1	LIG1	0.000	
2	 O16	8.572	-0.173	22.689	O.2	1	LIG1	0.000	
3	 N18	6.849	0.694	19.024	N.2	1	LIG1	0.000	
4	 O19	5.961	-4.281	19.413	O.3	1	LIG1	0.000	
5	 O20	10.774	-3.717	25.303	O.2	1	LIG1	0.000	
6	 C21	8.714	-1.345	22.440	C.2	1	LIG1	0.000	
7	 C22	5.968	-0.051	18.344	C.2	1	LIG1	0.000	
8	 C23	7.577	0.133	20.010	C.2	1	LIG1	0.000	
9	 C24	13.646	-2.311	23.527	C.3	1	LIG1	0.000	
10	 C25	12.912	-3.022	24.450	C.3	1	LIG1	0.000	
11	 C26	5.993	-1.437	18.478	C.2	1	LIG1	0.000	
12	 C27	11.643	-1.546	22.463	C.3	1	LIG1	0.000	
13	 C28	13.016	-1.581	22.535	C.3	1	LIG1	0.000	
14	 C29	11.524	-3.005	24.377	C.2	1	LIG1	0.000	
15	 C30	7.596	-1.248	20.235	C.2	1	LIG1	0.000	
16	 C31	6.657	-2.036	19.536	C.2	1	LIG1	0.000	
17	 C32	10.855	-2.228	23.386	C.2	1	LIG1	0.000	
18	 N33	8.342	-1.869	21.255	N.pl3	1	LIG1	0.000	
19	 C34	6.945	-3.481	19.588	C.3	1	LIG1	0.000	
20	 C35	9.378	-3.723	25.304	C.2	1	LIG1	0.000	
21	 C36	8.629	-2.800	24.414	C.2	1	LIG1	0.000	
22	 C37	9.396	-2.278	23.374	C.2	1	LIG1	0.000	
@<TRIPOS>BOND
1 2 6 2
2 3 7 ar
3 5 14 ar
4 6 18 1
5 6 22 1
6 7 11 ar
7 3 8 ar
8 9 13 1
9 9 10 1
10 11 16 ar
11 12 17 1
12 1 13 1
13 12 13 1
14 10 14 1
15 14 17 ar
16 8 15 ar
17 15 16 ar
18 16 19 1
19 15 18 1
20 4 19 1
21 5 20 ar
22 20 21 ar
23 17 22 ar
24 21 22 ar
@<TRIPOS>SUBSTRUCTURE
1	LIG1	1	GROUP	1 C	LIG
