# created with PyMOL 3.1.3.1
@<TRIPOS>MOLECULE
predicted
22 24 1                 
SMALL
USER_CHARGES
@<TRIPOS>ATOM
1	CL17	12.769	-4.442	25.116	Cl	1	LIG1	0.000	
2	 O16	8.729	-0.076	20.936	O.2	1	LIG1	0.000	
3	 N18	6.269	-0.804	17.593	N.2	1	LIG1	0.000	
4	 C19	8.356	-1.055	21.532	C.2	1	LIG1	0.000	
5	 C20	6.899	-1.419	18.574	C.2	1	LIG1	0.000	
6	 C21	13.211	-1.749	22.334	C.2	1	LIG1	0.000	
7	 C22	13.441	-2.791	23.168	C.2	1	LIG1	0.000	
8	 C23	12.023	-1.073	22.387	C.2	1	LIG1	0.000	
9	 C24	11.322	-2.444	24.125	C.2	1	LIG1	0.000	
10	 C25	3.182	1.116	20.660	C.2	1	LIG1	0.000	
11	 C26	3.815	0.530	21.682	C.2	1	LIG1	0.000	
12	 C27	12.501	-3.132	24.072	C.2	1	LIG1	0.000	
13	 C28	11.101	-1.404	23.299	C.2	1	LIG1	0.000	
14	 C29	5.214	-0.084	17.827	C.2	1	LIG1	0.000	
15	 C30	3.621	0.931	19.388	C.2	1	LIG1	0.000	
16	 C31	4.918	-0.249	21.474	C.2	1	LIG1	0.000	
17	 C32	6.520	-1.278	19.880	C.2	1	LIG1	0.000	
18	 C33	4.729	0.144	19.126	C.2	1	LIG1	0.000	
19	 C34	5.390	-0.472	20.188	C.2	1	LIG1	0.000	
20	 N35	8.781	-1.363	22.737	N.pl3	1	LIG1	0.000	
21	 C36	7.307	-1.978	20.970	C.3	1	LIG1	0.000	
22	 C37	9.812	-0.619	23.398	C.3	1	LIG1	0.000	
@<TRIPOS>BOND
1 2 4 2
2 3 14 ar
3 4 20 1
4 4 21 1
5 3 5 ar
6 6 7 ar
7 7 12 ar
8 6 8 ar
9 10 11 ar
10 11 16 ar
11 1 12 1
12 9 12 ar
13 8 13 ar
14 9 13 ar
15 14 18 ar
16 10 15 ar
17 16 19 ar
18 5 17 ar
19 17 19 ar
20 15 18 ar
21 18 19 ar
22 20 22 1
23 17 21 1
24 13 22 1
@<TRIPOS>SUBSTRUCTURE
1	LIG1	1	GROUP	1 C	LIG
