# created with PyMOL 3.1.3.1
@<TRIPOS>MOLECULE
predicted
35 40 1                 
SMALL
USER_CHARGES
@<TRIPOS>ATOM
1	 O23	10.807	1.979	24.381	O.2	1	LIG1	0.000	
2	 O24	9.010	0.186	21.472	O.2	1	LIG1	0.000	
3	 N26	5.994	2.110	24.180	N.2	1	LIG1	0.000	
4	 N27	7.625	3.111	23.138	N.2	1	LIG1	0.000	
5	 N28	6.518	-0.897	17.994	N.2	1	LIG1	0.000	
6	 O29	5.485	2.887	23.135	O.2	1	LIG1	0.000	
7	 C30	10.353	0.837	24.248	C.2	1	LIG1	0.000	
8	 C31	8.588	-0.858	21.926	C.2	1	LIG1	0.000	
9	 C32	7.282	2.280	24.161	C.2	1	LIG1	0.000	
10	 C33	6.506	3.481	22.541	C.2	1	LIG1	0.000	
11	 C34	7.221	-1.324	19.021	C.2	1	LIG1	0.000	
12	 C35	13.337	-1.178	23.307	C.2	1	LIG1	0.000	
13	 C36	12.570	-0.136	23.734	C.2	1	LIG1	0.000	
14	 C37	11.376	-2.458	22.755	C.2	1	LIG1	0.000	
15	 C38	3.113	0.736	20.963	C.2	1	LIG1	0.000	
16	 C39	3.816	0.279	22.058	C.2	1	LIG1	0.000	
17	 C40	12.764	-2.329	22.815	C.2	1	LIG1	0.000	
18	 C41	11.185	-0.247	23.719	C.2	1	LIG1	0.000	
19	 C42	10.579	-1.439	23.268	C.2	1	LIG1	0.000	
20	 C43	5.340	-0.296	18.189	C.2	1	LIG1	0.000	
21	 C44	3.612	0.537	19.685	C.2	1	LIG1	0.000	
22	 C45	5.011	-0.338	21.879	C.2	1	LIG1	0.000	
23	 C46	6.788	-1.143	20.342	C.2	1	LIG1	0.000	
24	 C47	4.818	-0.083	19.482	C.2	1	LIG1	0.000	
25	 C48	5.541	-0.521	20.592	C.2	1	LIG1	0.000	
26	 N49	7.560	-1.562	21.403	N.pl3	1	LIG1	0.000	
27	 N50	9.009	0.591	24.519	N.pl3	1	LIG1	0.000	
28	 C51	6.283	4.400	21.419	C.3	1	LIG1	0.000	
29	 C52	8.230	1.609	25.145	C.3	1	LIG1	0.000	
30	 C53	8.326	-3.720	24.268	C.3	1	LIG1	0.000	
31	 C54	7.371	-2.810	22.081	C.3	1	LIG1	0.000	
32	 C55	8.447	-0.762	24.410	C.3	1	LIG1	0.000	
33	 C56	8.518	-2.895	23.052	C.3	1	LIG1	0.000	
34	 C57	9.073	-1.506	23.201	C.3	1	LIG1	0.000	
35	 F25	13.559	-3.301	22.422	 F	1	LIG1	0.000	
@<TRIPOS>BOND
1 3 6 ar
2 4 9 ar
3 5 20 ar
4 1 7 2
5 2 8 2
6 8 26 1
7 3 9 ar
8 9 29 1
9 4 10 ar
10 6 10 ar
11 5 11 ar
12 12 13 ar
13 13 18 ar
14 14 17 ar
15 15 16 ar
16 16 22 ar
17 12 17 ar
18 17 35 1
19 7 18 1
20 14 19 ar
21 18 19 ar
22 20 24 ar
23 15 21 ar
24 22 25 ar
25 11 23 ar
26 23 25 ar
27 21 24 ar
28 24 25 ar
29 23 26 1
30 26 31 1
31 7 27 1
32 27 32 1
33 10 28 1
34 27 29 1
35 31 33 1
36 32 34 1
37 30 33 1
38 8 34 1
39 19 34 1
40 33 34 1
@<TRIPOS>SUBSTRUCTURE
1	LIG1	1	GROUP	1 C	LIG
