# created with PyMOL 3.1.3.1
@<TRIPOS>MOLECULE
predicted
24 27 1                 
SMALL
USER_CHARGES
@<TRIPOS>ATOM
1	 O17	8.374	1.100	21.995	O.2	1	LIG1	0.000	
2	 N18	6.607	-0.624	17.974	N.2	1	LIG1	0.000	
3	 N19	7.963	-2.290	21.830	N.2	1	LIG1	0.000	
4	 C20	7.324	-0.970	19.026	C.2	1	LIG1	0.000	
5	 C21	13.650	-2.312	23.310	C.3	1	LIG1	0.000	
6	 C22	13.095	-2.598	24.517	C.3	1	LIG1	0.000	
7	 C23	12.881	-2.362	22.193	C.3	1	LIG1	0.000	
8	 C24	11.730	-2.879	24.606	C.3	1	LIG1	0.000	
9	 C25	11.530	-2.625	22.285	C.3	1	LIG1	0.000	
10	 C26	3.247	1.181	20.804	C.2	1	LIG1	0.000	
11	 C27	3.954	0.840	21.921	C.2	1	LIG1	0.000	
12	 C28	10.971	-2.895	23.491	C.3	1	LIG1	0.000	
13	 C29	5.446	-0.031	18.121	C.2	1	LIG1	0.000	
14	 C30	3.722	0.914	19.550	C.2	1	LIG1	0.000	
15	 C31	5.155	0.225	21.808	C.2	1	LIG1	0.000	
16	 C32	6.905	-0.712	20.319	C.2	1	LIG1	0.000	
17	 C33	8.813	-2.114	22.889	C.2	1	LIG1	0.000	
18	 C34	8.402	-0.126	22.169	C.2	1	LIG1	0.000	
19	 C35	4.932	0.282	19.387	C.2	1	LIG1	0.000	
20	 C36	5.670	-0.067	20.527	C.2	1	LIG1	0.000	
21	 N37	7.715	-1.041	21.403	N.2	1	LIG1	0.000	
22	 N38	9.036	-0.803	23.110	N.2	1	LIG1	0.000	
23	 C39	9.501	-3.171	23.628	C.3	1	LIG1	0.000	
24	 C40	9.829	-0.199	24.150	C.3	1	LIG1	0.000	
@<TRIPOS>BOND
1 2 13 ar
2 3 21 ar
3 2 4 ar
4 5 7 1
5 5 6 1
6 7 9 1
7 6 8 1
8 10 11 ar
9 11 15 ar
10 8 12 1
11 9 12 1
12 13 19 ar
13 10 14 ar
14 15 20 ar
15 4 16 ar
16 16 20 ar
17 3 17 ar
18 17 23 1
19 1 18 2
20 14 19 ar
21 19 20 ar
22 16 21 1
23 18 21 ar
24 17 22 ar
25 18 22 ar
26 12 23 1
27 22 24 1
@<TRIPOS>SUBSTRUCTURE
1	LIG1	1	GROUP	1 C	LIG
