# created with PyMOL 3.1.3.1
@<TRIPOS>MOLECULE
predicted
24 27 1                 
SMALL
USER_CHARGES
@<TRIPOS>ATOM
1	CL15	13.869	-0.608	22.510	Cl	1	LIG1	0.000	
2	 O14	8.997	0.837	20.658	O.2	1	LIG1	0.000	
3	 N16	6.440	1.216	17.263	N.2	1	LIG1	0.000	
4	 N17	7.224	0.447	18.023	N.2	1	LIG1	0.000	
5	 O18	8.533	-2.293	23.833	O.2	1	LIG1	0.000	
6	 C19	8.257	-0.066	20.983	C.2	1	LIG1	0.000	
7	 C20	2.847	1.508	22.388	C.2	1	LIG1	0.000	
8	 C21	4.078	1.018	22.613	C.2	1	LIG1	0.000	
9	 C22	2.506	1.872	21.102	C.2	1	LIG1	0.000	
10	 C23	12.109	-2.002	23.978	C.2	1	LIG1	0.000	
11	 C24	10.878	-2.437	24.354	C.2	1	LIG1	0.000	
12	 C25	4.958	0.869	21.567	C.2	1	LIG1	0.000	
13	 C26	3.411	1.726	20.073	C.2	1	LIG1	0.000	
14	 C27	11.193	-0.735	22.211	C.2	1	LIG1	0.000	
15	 C28	12.268	-1.157	22.927	C.2	1	LIG1	0.000	
16	 C29	9.808	-2.010	23.640	C.2	1	LIG1	0.000	
17	 C30	4.644	1.213	20.284	C.2	1	LIG1	0.000	
18	 C31	9.935	-1.159	22.568	C.2	1	LIG1	0.000	
19	 C32	5.438	1.557	17.982	C.2	1	LIG1	0.000	
20	 C33	6.664	0.332	19.226	C.2	1	LIG1	0.000	
21	 N34	7.139	-0.399	20.351	N.pl3	1	LIG1	0.000	
22	 N35	5.559	1.051	19.217	N.2	1	LIG1	0.000	
23	 C36	7.782	-1.644	22.910	C.2	1	LIG1	0.000	
24	 C37	8.655	-0.943	22.097	C.2	1	LIG1	0.000	
@<TRIPOS>BOND
1 2 6 2
2 3 19 ar
3 3 4 ar
4 5 16 ar
5 6 21 1
6 6 24 1
7 7 9 ar
8 7 8 ar
9 9 13 ar
10 10 15 ar
11 10 11 ar
12 8 12 ar
13 14 18 ar
14 1 15 1
15 14 15 ar
16 11 16 ar
17 16 18 ar
18 12 17 ar
19 13 17 ar
20 19 22 ar
21 4 20 ar
22 20 22 ar
23 20 21 1
24 17 22 1
25 5 23 ar
26 18 24 ar
27 23 24 ar
@<TRIPOS>SUBSTRUCTURE
1	LIG1	1	GROUP	1 C	LIG
