# created with PyMOL 3.1.3.1
@<TRIPOS>MOLECULE
predicted
20 21 1                 
SMALL
USER_CHARGES
@<TRIPOS>ATOM
1	 O18	7.097	0.716	17.668	O.2	1	LIG1	0.000	
2	 O19	6.728	-3.098	22.419	O.2	1	LIG1	0.000	
3	 O20	7.662	0.715	21.788	O.2	1	LIG1	0.000	
4	 C21	6.125	0.752	18.355	C.2	1	LIG1	0.000	
5	 C22	7.507	-2.690	23.217	C.2	1	LIG1	0.000	
6	 C23	7.760	-0.296	21.126	C.2	1	LIG1	0.000	
7	 C24	12.893	-0.063	23.816	C.2	1	LIG1	0.000	
8	 C25	13.206	-0.265	22.543	C.2	1	LIG1	0.000	
9	 C26	11.600	-0.324	24.259	C.2	1	LIG1	0.000	
10	 C27	12.239	-0.731	21.690	C.2	1	LIG1	0.000	
11	 C28	10.625	-0.805	23.416	C.2	1	LIG1	0.000	
12	 C29	10.976	-0.977	22.062	C.2	1	LIG1	0.000	
13	 N30	6.117	0.339	19.598	N.pl3	1	LIG1	0.000	
14	 N31	7.083	-0.526	20.027	N.pl3	1	LIG1	0.000	
15	 N32	8.461	-1.789	22.884	N.pl3	1	LIG1	0.000	
16	 C33	4.841	1.361	17.898	C.3	1	LIG1	0.000	
17	 C34	7.463	-3.205	24.632	C.3	1	LIG1	0.000	
18	 C35	9.210	-1.064	23.859	C.3	1	LIG1	0.000	
19	 C36	9.940	-1.454	21.113	C.3	1	LIG1	0.000	
20	 C37	8.601	-1.491	21.570	C.3	1	LIG1	0.000	
@<TRIPOS>BOND
1 1 4 2
2 4 13 1
3 2 5 2
4 5 17 1
5 3 6 2
6 6 20 1
7 7 9 ar
8 7 8 ar
9 9 11 ar
10 8 10 ar
11 11 18 1
12 10 12 ar
13 11 12 ar
14 13 14 1
15 6 14 1
16 5 15 1
17 4 16 1
18 15 18 1
19 12 19 1
20 15 20 1
21 19 20 1
@<TRIPOS>SUBSTRUCTURE
1	LIG1	1	GROUP	1 C	LIG
