# created with PyMOL 3.1.3.1
@<TRIPOS>MOLECULE
predicted
41 47 1                 
SMALL
USER_CHARGES
@<TRIPOS>ATOM
1	CL26	13.454	-3.362	22.507	Cl	1	LIG1	0.000	
2	 O24	10.476	2.315	24.347	O.2	1	LIG1	0.000	
3	 O25	8.714	0.376	21.429	O.2	1	LIG1	0.000	
4	 N27	6.868	-7.088	22.417	N.2	1	LIG1	0.000	
5	 N28	7.545	-6.131	23.083	N.2	1	LIG1	0.000	
6	 N29	5.869	4.436	22.131	N.2	1	LIG1	0.000	
7	 N30	7.144	4.715	22.511	N.2	1	LIG1	0.000	
8	 N31	6.303	-0.835	17.948	N.2	1	LIG1	0.000	
9	 S32	5.288	-6.116	23.870	S.2	1	LIG1	0.000	
10	 C33	10.002	1.183	24.233	C.2	1	LIG1	0.000	
11	 C34	8.271	-0.647	21.946	C.2	1	LIG1	0.000	
12	 C35	5.669	-7.194	22.732	C.2	1	LIG1	0.000	
13	 C36	6.794	-5.470	23.961	C.2	1	LIG1	0.000	
14	 C37	5.247	3.385	22.632	C.2	1	LIG1	0.000	
15	 C38	7.755	3.998	23.465	C.2	1	LIG1	0.000	
16	 C39	6.966	-1.244	19.030	C.2	1	LIG1	0.000	
17	 C40	13.000	-0.900	23.357	C.2	1	LIG1	0.000	
18	 C41	12.220	0.173	23.726	C.2	1	LIG1	0.000	
19	 C42	5.834	2.605	23.635	C.2	1	LIG1	0.000	
20	 C43	11.020	-2.212	22.908	C.2	1	LIG1	0.000	
21	 C44	2.841	1.010	20.728	C.2	1	LIG1	0.000	
22	 C45	3.493	0.584	21.872	C.2	1	LIG1	0.000	
23	 C46	12.420	-2.083	22.939	C.2	1	LIG1	0.000	
24	 C47	10.840	0.053	23.749	C.2	1	LIG1	0.000	
25	 C48	7.152	2.866	23.996	C.2	1	LIG1	0.000	
26	 C49	10.230	-1.163	23.364	C.2	1	LIG1	0.000	
27	 C50	5.146	-0.207	18.079	C.2	1	LIG1	0.000	
28	 C51	3.384	0.750	19.467	C.2	1	LIG1	0.000	
29	 C52	4.675	-0.089	21.774	C.2	1	LIG1	0.000	
30	 C53	6.506	-1.011	20.331	C.2	1	LIG1	0.000	
31	 C54	4.586	0.074	19.339	C.2	1	LIG1	0.000	
32	 C55	5.253	-0.335	20.509	C.2	1	LIG1	0.000	
33	 N56	7.148	-4.405	24.802	N.pl3	1	LIG1	0.000	
34	 N57	7.250	-1.395	21.437	N.pl3	1	LIG1	0.000	
35	 N58	8.647	0.966	24.492	N.pl3	1	LIG1	0.000	
36	 C59	7.841	2.032	25.060	C.3	1	LIG1	0.000	
37	 C60	7.940	-3.262	24.583	C.3	1	LIG1	0.000	
38	 C61	7.047	-2.586	22.196	C.3	1	LIG1	0.000	
39	 C62	8.082	-0.362	24.430	C.3	1	LIG1	0.000	
40	 C63	8.151	-2.618	23.257	C.3	1	LIG1	0.000	
41	 C64	8.708	-1.229	23.284	C.3	1	LIG1	0.000	
@<TRIPOS>BOND
1 2 10 2
2 4 12 ar
3 4 5 ar
4 6 7 ar
5 7 15 ar
6 8 27 ar
7 10 24 1
8 10 35 1
9 3 11 2
10 11 34 1
11 9 12 ar
12 5 13 ar
13 9 13 ar
14 6 14 ar
15 8 16 ar
16 17 23 ar
17 17 18 ar
18 14 19 ar
19 20 26 ar
20 21 22 ar
21 22 29 ar
22 1 23 1
23 20 23 ar
24 18 24 ar
25 24 26 ar
26 15 25 ar
27 19 25 ar
28 26 41 1
29 27 31 ar
30 21 28 ar
31 29 32 ar
32 16 30 ar
33 30 32 ar
34 28 31 ar
35 31 32 ar
36 13 33 1
37 30 34 1
38 34 38 1
39 35 36 1
40 25 36 1
41 33 37 1
42 38 40 1
43 35 39 1
44 37 40 1
45 11 41 1
46 39 41 1
47 40 41 1
@<TRIPOS>SUBSTRUCTURE
1	LIG1	1	GROUP	1 C	LIG
