# created with PyMOL 3.1.3.1
@<TRIPOS>MOLECULE
predicted
26 28 1                 
SMALL
USER_CHARGES
@<TRIPOS>ATOM
1	CL19	13.987	-1.841	22.071	Cl	1	LIG1	0.000	
2	 O16	9.001	0.826	21.245	O.2	1	LIG1	0.000	
3	 O17	3.253	1.850	25.499	O.2	1	LIG1	0.000	
4	 O18	4.731	3.281	24.166	O.2	1	LIG1	0.000	
5	 N20	6.616	0.257	17.771	N.2	1	LIG1	0.000	
6	 O21	3.387	1.478	23.077	O.3	1	LIG1	0.000	
7	 C22	8.512	-0.149	21.735	C.2	1	LIG1	0.000	
8	 C23	7.247	-0.306	18.812	C.2	1	LIG1	0.000	
9	 C24	12.120	1.000	24.121	C.2	1	LIG1	0.000	
10	 C25	13.113	0.243	23.540	C.2	1	LIG1	0.000	
11	 C26	10.797	0.646	23.970	C.2	1	LIG1	0.000	
12	 C27	11.479	-1.249	22.609	C.2	1	LIG1	0.000	
13	 C28	3.307	1.972	20.768	C.2	1	LIG1	0.000	
14	 C29	12.772	-0.876	22.790	C.2	1	LIG1	0.000	
15	 C30	3.932	1.402	21.838	C.2	1	LIG1	0.000	
16	 C31	10.514	-0.484	23.180	C.2	1	LIG1	0.000	
17	 C32	5.496	0.943	17.957	C.2	1	LIG1	0.000	
18	 C33	3.809	1.843	19.490	C.2	1	LIG1	0.000	
19	 C34	5.073	0.684	21.629	C.2	1	LIG1	0.000	
20	 C35	6.791	-0.191	20.107	C.2	1	LIG1	0.000	
21	 C36	4.952	1.131	19.258	C.2	1	LIG1	0.000	
22	 C37	5.592	0.547	20.356	C.2	1	LIG1	0.000	
23	 N38	7.437	-0.763	21.220	N.pl3	1	LIG1	0.000	
24	 C39	9.072	-0.835	22.991	C.3	1	LIG1	0.000	
25	 C40	5.424	0.842	24.754	C.3	1	LIG1	0.000	
26	 S41	4.211	1.955	24.406	S.3	1	LIG1	0.000	
@<TRIPOS>BOND
1 5 8 ar
2 6 15 1
3 2 7 2
4 7 24 1
5 8 20 ar
6 9 10 ar
7 10 14 ar
8 9 11 ar
9 13 18 ar
10 1 14 1
11 12 14 ar
12 13 15 ar
13 15 19 ar
14 11 16 ar
15 12 16 ar
16 5 17 ar
17 18 21 ar
18 20 22 ar
19 20 23 1
20 17 21 ar
21 21 22 ar
22 19 22 ar
23 7 23 1
24 16 24 1
25 25 26 1
26 3 26 2
27 4 26 2
28 6 26 1
@<TRIPOS>SUBSTRUCTURE
1	LIG1	1	GROUP	1 C	LIG
