# created with PyMOL 3.1.3.1
@<TRIPOS>MOLECULE
predicted
35 40 1                 
SMALL
USER_CHARGES
@<TRIPOS>ATOM
1	CL29	13.634	-3.192	21.947	Cl	1	LIG1	0.000	
2	 O26	10.679	2.151	24.619	O.2	1	LIG1	0.000	
3	 O27	5.858	2.440	24.487	O.2	1	LIG1	0.000	
4	 O28	8.830	0.462	21.575	O.2	1	LIG1	0.000	
5	 N30	6.512	-0.639	18.005	N.2	1	LIG1	0.000	
6	 C31	10.218	1.009	24.397	C.2	1	LIG1	0.000	
7	 C32	7.019	2.320	24.281	C.2	1	LIG1	0.000	
8	 C33	8.445	-0.613	21.994	C.2	1	LIG1	0.000	
9	 C34	7.179	-1.097	19.039	C.2	1	LIG1	0.000	
10	 C35	13.243	-0.848	23.165	C.2	1	LIG1	0.000	
11	 C36	12.458	0.139	23.727	C.2	1	LIG1	0.000	
12	 C37	11.265	-2.140	22.606	C.2	1	LIG1	0.000	
13	 C38	3.086	1.048	20.988	C.2	1	LIG1	0.000	
14	 C39	3.762	0.550	22.078	C.2	1	LIG1	0.000	
15	 C40	12.648	-1.983	22.594	C.2	1	LIG1	0.000	
16	 C41	11.072	-0.018	23.753	C.2	1	LIG1	0.000	
17	 C42	10.482	-1.191	23.256	C.2	1	LIG1	0.000	
18	 C43	5.339	-0.001	18.197	C.2	1	LIG1	0.000	
19	 C44	3.603	0.873	19.702	C.2	1	LIG1	0.000	
20	 C45	4.930	-0.106	21.898	C.2	1	LIG1	0.000	
21	 C46	6.704	-0.941	20.360	C.2	1	LIG1	0.000	
22	 C47	4.793	0.208	19.492	C.2	1	LIG1	0.000	
23	 C48	5.476	-0.281	20.613	C.2	1	LIG1	0.000	
24	 N49	7.507	2.763	23.114	N.pl3	1	LIG1	0.000	
25	 N50	7.467	-1.363	21.427	N.pl3	1	LIG1	0.000	
26	 N51	8.851	0.728	24.647	N.pl3	1	LIG1	0.000	
27	 C52	6.664	3.350	22.118	C.3	1	LIG1	0.000	
28	 C53	7.146	1.054	26.458	C.3	1	LIG1	0.000	
29	 C54	8.014	1.978	26.742	C.3	1	LIG1	0.000	
30	 C55	8.012	1.748	25.308	C.3	1	LIG1	0.000	
31	 C56	8.393	-3.553	24.251	C.3	1	LIG1	0.000	
32	 C57	7.340	-2.634	22.061	C.3	1	LIG1	0.000	
33	 C58	8.346	-0.626	24.466	C.3	1	LIG1	0.000	
34	 C59	8.447	-2.687	23.061	C.3	1	LIG1	0.000	
35	 C60	8.963	-1.295	23.228	C.3	1	LIG1	0.000	
@<TRIPOS>BOND
1 5 18 ar
2 2 6 2
3 3 7 2
4 7 30 1
5 4 8 2
6 8 25 1
7 5 9 ar
8 10 11 ar
9 11 16 ar
10 12 15 ar
11 13 14 ar
12 14 20 ar
13 1 15 1
14 10 15 ar
15 6 16 1
16 12 17 ar
17 16 17 ar
18 18 22 ar
19 13 19 ar
20 20 23 ar
21 9 21 ar
22 21 23 ar
23 19 22 ar
24 22 23 ar
25 7 24 1
26 21 25 1
27 25 32 1
28 6 26 1
29 26 33 1
30 24 27 1
31 28 29 1
32 26 30 1
33 28 30 1
34 29 30 1
35 32 34 1
36 33 35 1
37 31 34 1
38 8 35 1
39 17 35 1
40 34 35 1
@<TRIPOS>SUBSTRUCTURE
1	LIG1	1	GROUP	1 C	LIG
