# created with PyMOL 3.1.3.1
@<TRIPOS>MOLECULE
predicted
35 40 1                 
SMALL
USER_CHARGES
@<TRIPOS>ATOM
1	 O23	11.133	2.129	24.748	O.2	1	LIG1	0.000	
2	 O24	9.085	0.538	21.647	O.2	1	LIG1	0.000	
3	 N26	8.553	3.807	23.864	N.2	1	LIG1	0.000	
4	 N27	6.664	2.397	23.944	N.2	1	LIG1	0.000	
5	 N28	6.658	-0.562	18.096	N.2	1	LIG1	0.000	
6	 C29	10.619	1.031	24.487	C.2	1	LIG1	0.000	
7	 C30	8.671	-0.523	22.069	C.2	1	LIG1	0.000	
8	 C31	7.868	2.748	24.359	C.2	1	LIG1	0.000	
9	 C32	7.953	4.578	22.948	C.2	1	LIG1	0.000	
10	 C33	6.045	3.159	23.014	C.2	1	LIG1	0.000	
11	 C34	7.331	-0.998	19.135	C.2	1	LIG1	0.000	
12	 C35	6.655	4.286	22.505	C.2	1	LIG1	0.000	
13	 C36	13.494	-0.922	23.165	C.2	1	LIG1	0.000	
14	 C37	12.775	0.074	23.751	C.2	1	LIG1	0.000	
15	 C38	11.462	-2.144	22.647	C.2	1	LIG1	0.000	
16	 C39	3.225	1.155	21.011	C.2	1	LIG1	0.000	
17	 C40	3.886	0.678	22.118	C.2	1	LIG1	0.000	
18	 C41	12.852	-2.039	22.606	C.2	1	LIG1	0.000	
19	 C42	11.385	-0.031	23.816	C.2	1	LIG1	0.000	
20	 C43	10.713	-1.180	23.313	C.2	1	LIG1	0.000	
21	 C44	5.486	0.079	18.274	C.2	1	LIG1	0.000	
22	 C45	3.746	0.956	19.740	C.2	1	LIG1	0.000	
23	 C46	5.076	0.029	21.968	C.2	1	LIG1	0.000	
24	 C47	6.885	-0.812	20.452	C.2	1	LIG1	0.000	
25	 C48	4.950	0.307	19.556	C.2	1	LIG1	0.000	
26	 C49	5.637	-0.158	20.688	C.2	1	LIG1	0.000	
27	 N50	7.654	-1.232	21.527	N.pl3	1	LIG1	0.000	
28	 N51	9.279	0.832	24.746	N.pl3	1	LIG1	0.000	
29	 C52	8.535	1.860	25.440	C.3	1	LIG1	0.000	
30	 C53	8.615	-3.467	24.315	C.3	1	LIG1	0.000	
31	 C54	7.491	-2.502	22.169	C.3	1	LIG1	0.000	
32	 C55	8.652	-0.485	24.561	C.3	1	LIG1	0.000	
33	 C56	8.631	-2.591	23.137	C.3	1	LIG1	0.000	
34	 C57	9.221	-1.218	23.312	C.3	1	LIG1	0.000	
35	 F25	13.586	-2.983	22.057	 F	1	LIG1	0.000	
@<TRIPOS>BOND
1 3 9 ar
2 5 21 ar
3 1 6 2
4 6 19 1
5 2 7 2
6 7 34 1
7 3 8 ar
8 4 8 ar
9 9 12 ar
10 4 10 ar
11 5 11 ar
12 10 12 ar
13 13 18 ar
14 13 14 ar
15 15 20 ar
16 16 17 ar
17 17 23 ar
18 15 18 ar
19 18 35 1
20 14 19 ar
21 19 20 ar
22 21 25 ar
23 16 22 ar
24 23 26 ar
25 11 24 ar
26 24 26 ar
27 22 25 ar
28 25 26 ar
29 7 27 1
30 24 27 1
31 6 28 1
32 28 29 1
33 8 29 1
34 30 33 1
35 27 31 1
36 28 32 1
37 31 33 1
38 33 34 1
39 20 34 1
40 32 34 1
@<TRIPOS>SUBSTRUCTURE
1	LIG1	1	GROUP	1 C	LIG
