# created with PyMOL 3.1.3.1
@<TRIPOS>MOLECULE
predicted
35 40 1                 
SMALL
USER_CHARGES
@<TRIPOS>ATOM
1	CL29	-13.283	-3.006	-21.940	Cl	1	LIG1	0.000	
2	 O26	-9.840	2.354	-23.906	O.2	1	LIG1	0.000	
3	 O27	-5.632	3.408	-23.805	O.2	1	LIG1	0.000	
4	 O28	-8.306	0.470	-20.924	O.2	1	LIG1	0.000	
5	 N30	-6.045	-0.705	-17.329	N.2	1	LIG1	0.000	
6	 C31	-9.476	1.185	-23.750	C.2	1	LIG1	0.000	
7	 C32	-6.572	2.752	-23.561	C.2	1	LIG1	0.000	
8	 C33	-7.947	-0.617	-21.353	C.2	1	LIG1	0.000	
9	 C34	-6.709	-1.149	-18.376	C.2	1	LIG1	0.000	
10	 C35	-12.654	-0.611	-22.902	C.2	1	LIG1	0.000	
11	 C36	-11.790	0.384	-23.302	C.2	1	LIG1	0.000	
12	 C37	-10.808	-2.019	-22.280	C.2	1	LIG1	0.000	
13	 C38	-2.618	1.018	-20.258	C.2	1	LIG1	0.000	
14	 C39	-3.295	0.542	-21.360	C.2	1	LIG1	0.000	
15	 C40	-12.171	-1.802	-22.375	C.2	1	LIG1	0.000	
16	 C41	-10.420	0.168	-23.235	C.2	1	LIG1	0.000	
17	 C42	-9.919	-1.057	-22.755	C.2	1	LIG1	0.000	
18	 C43	-4.883	-0.071	-17.508	C.2	1	LIG1	0.000	
19	 C44	-3.141	0.827	-18.987	C.2	1	LIG1	0.000	
20	 C45	-4.464	-0.116	-21.199	C.2	1	LIG1	0.000	
21	 C46	-6.245	-0.971	-19.689	C.2	1	LIG1	0.000	
22	 C47	-4.336	0.162	-18.801	C.2	1	LIG1	0.000	
23	 C48	-5.024	-0.304	-19.925	C.2	1	LIG1	0.000	
24	 N49	-7.085	2.952	-22.351	N.pl3	1	LIG1	0.000	
25	 N50	-6.998	-1.388	-20.773	N.pl3	1	LIG1	0.000	
26	 N51	-8.127	0.822	-23.963	N.pl3	1	LIG1	0.000	
27	 C52	-6.537	3.887	-21.397	C.3	1	LIG1	0.000	
28	 C53	-6.816	1.631	-25.963	C.3	1	LIG1	0.000	
29	 C54	-5.946	0.998	-25.148	C.3	1	LIG1	0.000	
30	 C55	-7.199	1.777	-24.578	C.3	1	LIG1	0.000	
31	 C56	-7.732	-3.495	-23.653	C.3	1	LIG1	0.000	
32	 C57	-6.892	-2.657	-21.402	C.3	1	LIG1	0.000	
33	 C58	-7.710	-0.568	-23.801	C.3	1	LIG1	0.000	
34	 C59	-7.984	-2.664	-22.452	C.3	1	LIG1	0.000	
35	 C60	-8.429	-1.239	-22.627	C.3	1	LIG1	0.000	
@<TRIPOS>BOND
1 5 18 ar
2 2 6 2
3 3 7 2
4 7 30 1
5 4 8 2
6 8 25 1
7 5 9 ar
8 10 11 ar
9 11 16 ar
10 12 15 ar
11 13 14 ar
12 14 20 ar
13 1 15 1
14 10 15 ar
15 6 16 1
16 12 17 ar
17 16 17 ar
18 18 22 ar
19 13 19 ar
20 20 23 ar
21 9 21 ar
22 21 23 ar
23 19 22 ar
24 22 23 ar
25 7 24 1
26 21 25 1
27 25 32 1
28 6 26 1
29 26 33 1
30 24 27 1
31 28 29 1
32 26 30 1
33 28 30 1
34 29 30 1
35 32 34 1
36 33 35 1
37 31 34 1
38 8 35 1
39 17 35 1
40 34 35 1
@<TRIPOS>SUBSTRUCTURE
1	LIG1	1	GROUP	1 C	LIG
