# created with PyMOL 3.1.3.1
@<TRIPOS>MOLECULE
predicted
38 43 1                 
SMALL
USER_CHARGES
@<TRIPOS>ATOM
1	CL29	13.401	-3.323	22.520	Cl	1	LIG1	0.000	
2	 O26	10.379	2.300	24.215	O.2	1	LIG1	0.000	
3	 O27	5.888	2.956	23.996	O.2	1	LIG1	0.000	
4	 O28	8.698	0.373	21.334	O.2	1	LIG1	0.000	
5	 N30	6.277	-0.862	17.849	N.2	1	LIG1	0.000	
6	 N31	6.158	-5.110	24.042	N.2	1	LIG1	0.000	
7	 C32	9.926	1.159	24.116	C.2	1	LIG1	0.000	
8	 C33	7.026	2.796	23.847	C.2	1	LIG1	0.000	
9	 C34	8.248	-0.657	21.815	C.2	1	LIG1	0.000	
10	 C35	6.145	-6.430	23.798	C.2	1	LIG1	0.000	
11	 C36	6.939	-1.275	18.907	C.2	1	LIG1	0.000	
12	 C37	12.923	-0.906	23.394	C.2	1	LIG1	0.000	
13	 C38	12.136	0.143	23.743	C.2	1	LIG1	0.000	
14	 C39	10.983	-2.204	22.828	C.2	1	LIG1	0.000	
15	 C40	2.995	1.202	20.711	C.2	1	LIG1	0.000	
16	 C41	3.668	0.781	21.835	C.2	1	LIG1	0.000	
17	 C42	7.420	-6.941	23.675	C.2	1	LIG1	0.000	
18	 C43	12.363	-2.082	22.922	C.2	1	LIG1	0.000	
19	 C44	10.765	0.035	23.685	C.2	1	LIG1	0.000	
20	 C45	10.169	-1.169	23.261	C.2	1	LIG1	0.000	
21	 C46	5.142	-0.185	18.008	C.2	1	LIG1	0.000	
22	 C47	3.479	0.882	19.444	C.2	1	LIG1	0.000	
23	 C48	4.805	0.053	21.705	C.2	1	LIG1	0.000	
24	 C49	6.499	-1.003	20.210	C.2	1	LIG1	0.000	
25	 C50	8.278	-5.809	23.848	C.2	1	LIG1	0.000	
26	 C51	4.625	0.153	19.274	C.2	1	LIG1	0.000	
27	 C52	5.313	-0.262	20.430	C.2	1	LIG1	0.000	
28	 N53	7.607	3.319	22.784	N.pl3	1	LIG1	0.000	
29	 N54	7.241	-1.403	21.293	N.pl3	1	LIG1	0.000	
30	 N55	8.564	0.931	24.316	N.pl3	1	LIG1	0.000	
31	 N56	7.455	-4.762	24.023	N.2	1	LIG1	0.000	
32	 C57	6.900	4.182	21.879	C.3	1	LIG1	0.000	
33	 C58	7.774	1.996	24.833	C.3	1	LIG1	0.000	
34	 C59	7.038	-2.604	22.001	C.3	1	LIG1	0.000	
35	 C60	7.856	-3.368	24.290	C.3	1	LIG1	0.000	
36	 C61	7.993	-0.410	24.278	C.3	1	LIG1	0.000	
37	 C62	8.121	-2.652	23.054	C.3	1	LIG1	0.000	
38	 C63	8.667	-1.249	23.135	C.3	1	LIG1	0.000	
@<TRIPOS>BOND
1 5 21 ar
2 2 7 2
3 3 8 2
4 8 33 1
5 4 9 2
6 9 29 1
7 6 10 ar
8 5 11 ar
9 12 13 ar
10 13 19 ar
11 14 18 ar
12 15 16 ar
13 16 23 ar
14 10 17 ar
15 1 18 1
16 12 18 ar
17 7 19 1
18 14 20 ar
19 19 20 ar
20 21 26 ar
21 15 22 ar
22 23 27 ar
23 11 24 ar
24 24 27 ar
25 17 25 ar
26 22 26 ar
27 26 27 ar
28 8 28 1
29 24 29 1
30 29 34 1
31 7 30 1
32 30 36 1
33 6 31 ar
34 25 31 ar
35 28 32 1
36 30 33 1
37 34 37 1
38 31 35 1
39 36 38 1
40 35 37 1
41 9 38 1
42 20 38 1
43 37 38 1
@<TRIPOS>SUBSTRUCTURE
1	LIG1	1	GROUP	1 C	LIG
