# created with PyMOL 3.1.3.1
@<TRIPOS>MOLECULE
predicted
35 40 1                 
SMALL
USER_CHARGES
@<TRIPOS>ATOM
1	 O24	11.247	1.984	24.742	O.2	1	LIG1	0.000	
2	 O25	9.095	0.404	21.689	O.2	1	LIG1	0.000	
3	 N27	5.720	2.926	24.019	N.2	1	LIG1	0.000	
4	 N28	6.574	-0.664	18.139	N.2	1	LIG1	0.000	
5	 O29	6.409	2.281	25.029	O.2	1	LIG1	0.000	
6	 C30	10.720	0.866	24.492	C.2	1	LIG1	0.000	
7	 C31	8.682	-0.659	22.105	C.2	1	LIG1	0.000	
8	 C32	7.272	-1.105	19.169	C.2	1	LIG1	0.000	
9	 C33	6.600	3.441	23.166	C.2	1	LIG1	0.000	
10	 C34	7.667	2.339	24.727	C.2	1	LIG1	0.000	
11	 C35	7.853	3.067	23.582	C.2	1	LIG1	0.000	
12	 C36	13.519	-1.112	23.059	C.2	1	LIG1	0.000	
13	 C37	12.836	-0.111	23.681	C.2	1	LIG1	0.000	
14	 C38	11.453	-2.306	22.571	C.2	1	LIG1	0.000	
15	 C39	3.206	1.036	21.139	C.2	1	LIG1	0.000	
16	 C40	3.909	0.565	22.233	C.2	1	LIG1	0.000	
17	 C41	12.843	-2.221	22.493	C.2	1	LIG1	0.000	
18	 C42	11.450	-0.192	23.787	C.2	1	LIG1	0.000	
19	 C43	10.751	-1.331	23.290	C.2	1	LIG1	0.000	
20	 C44	5.407	-0.036	18.343	C.2	1	LIG1	0.000	
21	 C45	3.692	0.834	19.854	C.2	1	LIG1	0.000	
22	 C46	5.094	-0.074	22.055	C.2	1	LIG1	0.000	
23	 C47	6.861	-0.930	20.505	C.2	1	LIG1	0.000	
24	 C48	4.895	0.184	19.637	C.2	1	LIG1	0.000	
25	 C49	5.617	-0.276	20.755	C.2	1	LIG1	0.000	
26	 N50	7.643	-1.365	21.567	N.pl3	1	LIG1	0.000	
27	 N51	9.390	0.658	24.820	N.pl3	1	LIG1	0.000	
28	 C52	6.187	4.271	22.020	C.3	1	LIG1	0.000	
29	 C53	8.711	1.652	25.611	C.3	1	LIG1	0.000	
30	 C54	8.610	-3.598	24.356	C.3	1	LIG1	0.000	
31	 C55	7.472	-2.627	22.215	C.3	1	LIG1	0.000	
32	 C56	8.739	-0.663	24.632	C.3	1	LIG1	0.000	
33	 C57	8.648	-2.749	23.160	C.3	1	LIG1	0.000	
34	 C58	9.254	-1.372	23.332	C.3	1	LIG1	0.000	
35	 F26	13.554	-3.165	21.902	 F	1	LIG1	0.000	
@<TRIPOS>BOND
1 4 20 ar
2 3 5 ar
3 1 6 2
4 2 7 2
5 7 26 1
6 4 8 ar
7 3 9 ar
8 9 11 ar
9 5 10 ar
10 10 29 1
11 10 11 ar
12 12 13 ar
13 13 18 ar
14 14 17 ar
15 15 16 ar
16 16 22 ar
17 12 17 ar
18 17 35 1
19 6 18 1
20 14 19 ar
21 18 19 ar
22 20 24 ar
23 15 21 ar
24 22 25 ar
25 8 23 ar
26 23 25 ar
27 21 24 ar
28 24 25 ar
29 23 26 1
30 26 31 1
31 6 27 1
32 27 32 1
33 9 28 1
34 27 29 1
35 31 33 1
36 32 34 1
37 30 33 1
38 7 34 1
39 19 34 1
40 33 34 1
@<TRIPOS>SUBSTRUCTURE
1	LIG1	1	GROUP	1 C	LIG
