# created with PyMOL 3.1.3.1
@<TRIPOS>MOLECULE
predicted
21 23 1                 
SMALL
USER_CHARGES
@<TRIPOS>ATOM
1	 O17	9.176	1.079	21.117	O.2	1	LIG1	0.000	
2	 N18	6.685	0.260	17.826	N.2	1	LIG1	0.000	
3	 C19	8.668	0.180	21.732	C.2	1	LIG1	0.000	
4	 C20	7.326	-0.174	18.899	C.2	1	LIG1	0.000	
5	 C21	12.566	1.118	23.735	C.2	1	LIG1	0.000	
6	 C22	13.392	0.172	23.146	C.2	1	LIG1	0.000	
7	 C23	11.195	0.947	23.708	C.2	1	LIG1	0.000	
8	 C24	11.504	-1.146	22.503	C.2	1	LIG1	0.000	
9	 C25	3.352	2.172	20.613	C.2	1	LIG1	0.000	
10	 C26	3.990	1.745	21.719	C.2	1	LIG1	0.000	
11	 C27	12.858	-0.952	22.550	C.2	1	LIG1	0.000	
12	 C28	10.707	-0.211	23.091	C.2	1	LIG1	0.000	
13	 C29	5.574	0.920	17.943	C.2	1	LIG1	0.000	
14	 C30	3.852	1.919	19.364	C.2	1	LIG1	0.000	
15	 C31	5.154	1.053	21.614	C.2	1	LIG1	0.000	
16	 C32	6.881	0.033	20.174	C.2	1	LIG1	0.000	
17	 C33	5.024	1.219	19.211	C.2	1	LIG1	0.000	
18	 C34	5.680	0.765	20.361	C.2	1	LIG1	0.000	
19	 N35	7.558	-0.440	21.321	N.pl3	1	LIG1	0.000	
20	 C36	13.727	-1.972	21.898	C.3	1	LIG1	0.000	
21	 C37	9.231	-0.385	23.043	C.3	1	LIG1	0.000	
@<TRIPOS>BOND
1 2 13 ar
2 1 3 2
3 3 19 1
4 2 4 ar
5 5 7 ar
6 5 6 ar
7 7 12 ar
8 9 10 ar
9 10 15 ar
10 6 11 ar
11 8 11 ar
12 8 12 ar
13 12 21 1
14 13 17 ar
15 9 14 ar
16 15 18 ar
17 4 16 ar
18 16 18 ar
19 14 17 ar
20 17 18 ar
21 16 19 1
22 11 20 1
23 3 21 1
@<TRIPOS>SUBSTRUCTURE
1	LIG1	1	GROUP	1 C	LIG
