# created with PyMOL 3.1.3.1
@<TRIPOS>MOLECULE
predicted
27 30 1                 
SMALL
USER_CHARGES
@<TRIPOS>ATOM
1	CL20	14.049	-2.127	21.567	Cl	1	LIG1	0.000	
2	 O17	5.601	-2.576	20.632	O.2	1	LIG1	0.000	
3	 O18	9.113	1.350	21.624	O.2	1	LIG1	0.000	
4	 O19	6.393	1.091	16.867	O.2	1	LIG1	0.000	
5	 C21	6.049	-1.473	20.834	C.2	1	LIG1	0.000	
6	 C22	8.693	0.328	22.087	C.2	1	LIG1	0.000	
7	 C23	12.524	0.471	24.101	C.2	1	LIG1	0.000	
8	 C24	13.433	-0.261	23.372	C.2	1	LIG1	0.000	
9	 C25	11.176	0.329	23.901	C.2	1	LIG1	0.000	
10	 C26	11.626	-1.363	22.221	C.2	1	LIG1	0.000	
11	 C27	2.845	1.156	21.998	C.2	1	LIG1	0.000	
12	 C28	2.466	2.161	21.167	C.2	1	LIG1	0.000	
13	 C29	12.966	-1.199	22.440	C.2	1	LIG1	0.000	
14	 C30	10.756	-0.587	22.923	C.2	1	LIG1	0.000	
15	 C31	6.206	-0.175	18.775	C.2	1	LIG1	0.000	
16	 C32	3.841	0.323	21.631	C.2	1	LIG1	0.000	
17	 C33	5.588	-0.369	19.983	C.2	1	LIG1	0.000	
18	 C34	3.127	2.364	19.955	C.2	1	LIG1	0.000	
19	 C35	5.812	0.896	17.948	C.2	1	LIG1	0.000	
20	 C36	4.536	0.480	20.402	C.2	1	LIG1	0.000	
21	 C37	4.165	1.525	19.567	C.2	1	LIG1	0.000	
22	 N38	9.400	-0.741	22.677	N.pl3	1	LIG1	0.000	
23	 N39	6.835	-1.140	21.917	N.pl3	1	LIG1	0.000	
24	 N40	4.784	1.701	18.346	N.2	1	LIG1	0.000	
25	 C41	7.212	0.226	22.107	C.3	1	LIG1	0.000	
26	 C42	8.812	-2.078	22.911	C.3	1	LIG1	0.000	
27	 C43	7.289	-2.088	22.851	C.3	1	LIG1	0.000	
@<TRIPOS>BOND
1 2 5 2
2 5 17 1
3 5 23 1
4 3 6 2
5 6 25 1
6 7 8 ar
7 8 13 ar
8 7 9 ar
9 11 16 ar
10 11 12 ar
11 1 13 1
12 10 13 ar
13 9 14 ar
14 10 14 ar
15 15 19 ar
16 16 20 ar
17 15 17 ar
18 17 20 ar
19 12 18 ar
20 4 19 2
21 19 24 ar
22 18 21 ar
23 20 21 ar
24 6 22 1
25 14 22 1
26 23 25 1
27 23 27 1
28 21 24 ar
29 22 26 1
30 26 27 1
@<TRIPOS>SUBSTRUCTURE
1	LIG1	1	GROUP	1 C	LIG
