# created with PyMOL 3.1.3.1
@<TRIPOS>MOLECULE
predicted
19 20 1                 
SMALL
USER_CHARGES
@<TRIPOS>ATOM
1	 O19	13.444	-2.039	22.452	O.2	1	LIG1	0.000	
2	 O20	8.560	1.450	20.951	O.2	1	LIG1	0.000	
3	 O21	7.175	-0.384	18.395	O.3	1	LIG1	0.000	
4	 C22	12.861	-1.137	23.012	C.2	1	LIG1	0.000	
5	 C23	8.138	0.441	21.429	C.2	1	LIG1	0.000	
6	 C24	4.311	1.884	18.578	C.2	1	LIG1	0.000	
7	 C25	4.214	2.083	19.950	C.2	1	LIG1	0.000	
8	 C26	5.308	1.036	18.056	C.2	1	LIG1	0.000	
9	 C27	5.087	1.454	20.805	C.2	1	LIG1	0.000	
10	 C28	6.179	0.413	18.893	C.2	1	LIG1	0.000	
11	 C29	6.068	0.619	20.277	C.2	1	LIG1	0.000	
12	 N30	6.940	-0.065	21.172	N.pl3	1	LIG1	0.000	
13	 N31	11.542	-1.190	23.295	N.pl3	1	LIG1	0.000	
14	 C32	13.636	0.061	23.484	C.3	1	LIG1	0.000	
15	 C33	10.852	-0.163	24.048	C.3	1	LIG1	0.000	
16	 C34	10.651	-2.191	22.712	C.3	1	LIG1	0.000	
17	 C35	9.970	0.581	23.066	C.3	1	LIG1	0.000	
18	 C36	9.745	-1.441	21.731	C.3	1	LIG1	0.000	
19	 C37	8.967	-0.378	22.449	C.3	1	LIG1	0.000	
@<TRIPOS>BOND
1 1 4 2
2 4 13 1
3 2 5 2
4 5 12 1
5 6 8 ar
6 6 7 ar
7 8 10 ar
8 7 9 ar
9 3 10 1
10 9 11 ar
11 10 11 ar
12 11 12 1
13 13 15 1
14 13 16 1
15 4 14 1
16 15 17 1
17 17 19 1
18 16 18 1
19 5 19 1
20 18 19 1
@<TRIPOS>SUBSTRUCTURE
1	LIG1	1	GROUP	1 C	LIG
