# created with PyMOL 3.1.3.1
@<TRIPOS>MOLECULE
predicted
34 40 1                 
SMALL
USER_CHARGES
@<TRIPOS>ATOM
1	CL33	13.701	-2.953	21.147	Cl	1	LIG1	0.000	
2	 O32	8.781	0.554	21.219	O.2	1	LIG1	0.000	
3	 N34	6.564	-0.706	17.770	N.2	1	LIG1	0.000	
4	 O35	13.536	5.580	22.654	O.3	1	LIG1	0.000	
5	 C36	8.639	-0.515	21.800	C.2	1	LIG1	0.000	
6	 C37	7.307	-1.224	18.777	C.2	1	LIG1	0.000	
7	 C38	12.851	-2.629	24.981	C.2	1	LIG1	0.000	
8	 C39	13.523	-2.844	23.799	C.2	1	LIG1	0.000	
9	 C40	11.500	-2.318	24.919	C.2	1	LIG1	0.000	
10	 C41	11.497	-2.409	22.535	C.2	1	LIG1	0.000	
11	 C42	3.478	1.065	20.887	C.2	1	LIG1	0.000	
12	 C43	4.217	0.558	21.935	C.2	1	LIG1	0.000	
13	 C44	12.836	-2.720	22.590	C.2	1	LIG1	0.000	
14	 C45	10.838	-2.266	23.695	C.2	1	LIG1	0.000	
15	 C46	5.470	-0.069	18.012	C.2	1	LIG1	0.000	
16	 C47	3.892	0.866	19.585	C.2	1	LIG1	0.000	
17	 C48	5.366	-0.139	21.710	C.2	1	LIG1	0.000	
18	 C49	6.963	-1.123	20.107	C.2	1	LIG1	0.000	
19	 C50	5.034	0.137	19.328	C.2	1	LIG1	0.000	
20	 C51	5.795	-0.376	20.403	C.2	1	LIG1	0.000	
21	 N52	9.147	-0.627	23.059	N.pl3	1	LIG1	0.000	
22	 C53	7.896	-1.678	21.202	C.3	1	LIG1	0.000	
23	 C54	9.331	-1.967	23.687	C.3	1	LIG1	0.000	
24	 C55	13.063	5.412	23.933	C.3	1	LIG1	0.000	
25	 C56	13.164	4.090	22.370	C.3	1	LIG1	0.000	
26	 C57	12.674	3.899	23.735	C.3	1	LIG1	0.000	
27	 C58	9.401	0.432	25.322	C.3	1	LIG1	0.000	
28	 C59	9.155	1.893	25.756	C.3	1	LIG1	0.000	
29	 C60	8.583	1.731	23.558	C.3	1	LIG1	0.000	
30	 C61	11.226	3.776	23.988	C.2	1	LIG1	0.000	
31	 C62	10.805	1.234	23.498	C.3	1	LIG1	0.000	
32	 C63	9.524	0.552	23.793	C.3	1	LIG1	0.000	
33	 C64	9.187	2.692	24.478	C.3	1	LIG1	0.000	
34	 N65	10.635	2.573	23.920	N.pl3	1	LIG1	0.000	
@<TRIPOS>BOND
1 2 5 2
2 3 15 ar
3 4 25 1
4 5 21 1
5 5 22 1
6 3 6 ar
7 7 8 ar
8 8 13 ar
9 7 9 ar
10 11 12 ar
11 12 17 ar
12 1 13 1
13 10 13 ar
14 9 14 ar
15 10 14 ar
16 15 19 ar
17 11 16 ar
18 17 20 ar
19 6 18 ar
20 18 20 ar
21 16 19 ar
22 19 20 ar
23 21 23 1
24 21 32 1
25 18 22 1
26 14 23 1
27 4 24 1
28 24 25 1
29 24 26 1
30 25 26 1
31 27 28 1
32 28 33 1
33 26 30 1
34 27 32 1
35 29 32 1
36 31 32 1
37 29 33 1
38 33 34 1
39 30 34 2
40 31 34 1
@<TRIPOS>SUBSTRUCTURE
1	LIG1	1	GROUP	1 C	LIG
