# created with PyMOL 3.1.3.1
@<TRIPOS>MOLECULE
predicted
33 37 1                 
SMALL
USER_CHARGES
@<TRIPOS>ATOM
1	CL28	14.025	-1.507	21.116	Cl	1	LIG1	0.000	
2	 O25	9.279	0.429	21.437	O.2	1	LIG1	0.000	
3	 O26	6.293	-2.988	24.726	O.2	1	LIG1	0.000	
4	 O27	7.757	-4.404	25.922	O.2	1	LIG1	0.000	
5	 N29	6.852	0.227	17.693	N.2	1	LIG1	0.000	
6	 O30	5.898	-0.543	25.787	O.3	1	LIG1	0.000	
7	 C31	8.694	-0.596	21.710	C.2	1	LIG1	0.000	
8	 C32	7.419	-0.378	18.726	C.2	1	LIG1	0.000	
9	 C33	13.239	-2.212	23.590	C.2	1	LIG1	0.000	
10	 C34	12.292	-2.434	24.559	C.2	1	LIG1	0.000	
11	 C35	11.538	-1.531	22.092	C.2	1	LIG1	0.000	
12	 C36	3.494	1.926	20.589	C.2	1	LIG1	0.000	
13	 C37	4.092	1.318	21.672	C.2	1	LIG1	0.000	
14	 C38	12.842	-1.744	22.359	C.2	1	LIG1	0.000	
15	 C39	10.934	-2.179	24.305	C.2	1	LIG1	0.000	
16	 C40	10.561	-1.700	23.056	C.2	1	LIG1	0.000	
17	 C41	5.740	0.916	17.848	C.2	1	LIG1	0.000	
18	 C42	4.025	1.811	19.326	C.2	1	LIG1	0.000	
19	 C43	5.222	0.586	21.529	C.2	1	LIG1	0.000	
20	 C44	6.960	-0.304	20.019	C.2	1	LIG1	0.000	
21	 C45	5.179	1.065	19.132	C.2	1	LIG1	0.000	
22	 C46	5.784	0.436	20.240	C.2	1	LIG1	0.000	
23	 N47	7.569	-1.018	21.086	N.pl3	1	LIG1	0.000	
24	 N48	8.621	-2.246	24.980	N.3	1	LIG1	0.000	
25	 C49	6.114	0.739	25.308	C.3	1	LIG1	0.000	
26	 C50	9.937	-2.370	25.425	C.3	1	LIG1	0.000	
27	 C51	6.135	-0.287	28.186	C.3	1	LIG1	0.000	
28	 C52	5.838	-0.300	28.125	C.3	1	LIG1	0.000	
29	 C53	6.321	-0.966	27.108	C.3	1	LIG1	0.000	
30	 C54	8.407	-1.260	24.045	C.3	1	LIG1	0.000	
31	 C55	7.016	-2.310	27.125	C.3	1	LIG1	0.000	
32	 C56	9.140	-1.521	22.776	C.3	1	LIG1	0.000	
33	 S57	7.401	-3.070	25.633	S.O2	1	LIG1	0.000	
@<TRIPOS>BOND
1 5 17 ar
2 6 29 1
3 2 7 2
4 7 23 1
5 5 8 ar
6 9 14 ar
7 9 10 ar
8 11 16 ar
9 12 13 ar
10 13 19 ar
11 1 14 1
12 11 14 ar
13 10 15 ar
14 15 16 ar
15 16 32 1
16 17 21 ar
17 12 18 ar
18 19 22 ar
19 8 20 ar
20 20 22 ar
21 18 21 ar
22 21 22 ar
23 20 23 1
24 24 26 1
25 24 30 1
26 6 25 1
27 15 26 1
28 27 28 1
29 27 29 1
30 28 29 1
31 29 31 1
32 31 33 1
33 7 32 1
34 30 32 1
35 3 33 2
36 4 33 2
37 24 33 1
@<TRIPOS>SUBSTRUCTURE
1	LIG1	1	GROUP	1 C	LIG
