# created with PyMOL 3.1.3.1
@<TRIPOS>MOLECULE
predicted
20 22 1                 
SMALL
USER_CHARGES
@<TRIPOS>ATOM
1	 O19	9.001	0.151	21.059	O.2	1	LIG1	0.000	
2	 N20	6.495	-0.944	17.765	N.2	1	LIG1	0.000	
3	 C21	8.912	-0.916	21.601	C.2	1	LIG1	0.000	
4	 C22	11.960	-0.285	22.937	C.3	1	LIG1	0.000	
5	 C23	12.798	-1.402	23.479	C.3	1	LIG1	0.000	
6	 C24	7.243	-1.471	18.723	C.2	1	LIG1	0.000	
7	 C25	3.409	0.722	21.010	C.2	1	LIG1	0.000	
8	 C26	4.171	0.204	22.014	C.2	1	LIG1	0.000	
9	 C27	5.387	-0.312	18.042	C.2	1	LIG1	0.000	
10	 C28	3.790	0.570	19.701	C.2	1	LIG1	0.000	
11	 C29	5.346	-0.465	21.745	C.2	1	LIG1	0.000	
12	 C30	6.961	-1.341	20.064	C.2	1	LIG1	0.000	
13	 C31	4.956	-0.104	19.371	C.2	1	LIG1	0.000	
14	 C32	5.744	-0.648	20.424	C.2	1	LIG1	0.000	
15	 N33	9.697	-1.192	22.715	N.pl3	1	LIG1	0.000	
16	 C34	7.894	-1.915	21.093	C.3	1	LIG1	0.000	
17	 C35	10.505	-0.185	23.328	C.3	1	LIG1	0.000	
18	 C36	12.397	-2.778	23.337	C.3	1	LIG1	0.000	
19	 C37	9.770	-2.478	23.371	C.3	1	LIG1	0.000	
20	 C38	11.022	-3.265	23.070	C.3	1	LIG1	0.000	
@<TRIPOS>BOND
1 1 3 2
2 2 9 ar
3 3 15 1
4 3 16 1
5 4 5 1
6 5 18 1
7 2 6 ar
8 7 8 ar
9 8 11 ar
10 9 13 ar
11 7 10 ar
12 11 14 ar
13 6 12 ar
14 12 14 ar
15 10 13 ar
16 13 14 ar
17 15 17 1
18 15 19 1
19 12 16 1
20 4 17 1
21 18 20 1
22 19 20 1
@<TRIPOS>SUBSTRUCTURE
1	LIG1	1	GROUP	1 C	LIG
