# created with PyMOL 3.1.3.1
@<TRIPOS>MOLECULE
predicted
38 43 1                 
SMALL
USER_CHARGES
@<TRIPOS>ATOM
1	CL26	13.531	-3.301	21.862	Cl	1	LIG1	0.000	
2	 O23	10.911	2.166	24.553	O.2	1	LIG1	0.000	
3	 O24	6.238	2.742	24.577	O.2	1	LIG1	0.000	
4	 O25	8.876	0.502	21.563	O.2	1	LIG1	0.000	
5	 N27	5.902	-6.098	23.758	N.2	1	LIG1	0.000	
6	 N28	6.204	-4.803	24.072	N.2	1	LIG1	0.000	
7	 N29	8.064	-5.903	23.835	N.2	1	LIG1	0.000	
8	 N30	6.517	-0.753	17.971	N.2	1	LIG1	0.000	
9	 N31	7.046	-6.767	23.615	N.2	1	LIG1	0.000	
10	 C32	10.391	1.047	24.356	C.2	1	LIG1	0.000	
11	 C33	7.372	2.603	24.308	C.2	1	LIG1	0.000	
12	 C34	8.480	-0.567	21.995	C.2	1	LIG1	0.000	
13	 C35	7.529	-4.726	24.104	C.2	1	LIG1	0.000	
14	 C36	7.188	-1.177	19.026	C.2	1	LIG1	0.000	
15	 C37	13.258	-0.958	23.100	C.2	1	LIG1	0.000	
16	 C38	12.542	0.053	23.654	C.2	1	LIG1	0.000	
17	 C39	11.210	-2.171	22.610	C.2	1	LIG1	0.000	
18	 C40	3.205	1.262	20.826	C.2	1	LIG1	0.000	
19	 C41	3.865	0.837	21.956	C.2	1	LIG1	0.000	
20	 C42	12.596	-2.076	22.553	C.2	1	LIG1	0.000	
21	 C43	11.153	-0.032	23.725	C.2	1	LIG1	0.000	
22	 C44	10.485	-1.189	23.251	C.2	1	LIG1	0.000	
23	 C45	5.375	-0.074	18.125	C.2	1	LIG1	0.000	
24	 C46	3.697	0.957	19.563	C.2	1	LIG1	0.000	
25	 C47	5.023	0.121	21.831	C.2	1	LIG1	0.000	
26	 C48	6.752	-0.897	20.337	C.2	1	LIG1	0.000	
27	 C49	4.860	0.244	19.401	C.2	1	LIG1	0.000	
28	 C50	5.540	-0.182	20.557	C.2	1	LIG1	0.000	
29	 N51	7.821	3.030	23.119	N.pl3	1	LIG1	0.000	
30	 N52	7.504	-1.311	21.425	N.pl3	1	LIG1	0.000	
31	 N53	9.042	0.853	24.637	N.pl3	1	LIG1	0.000	
32	 C54	6.961	3.716	22.201	C.3	1	LIG1	0.000	
33	 C55	8.312	1.914	25.271	C.3	1	LIG1	0.000	
34	 C56	8.320	-3.405	24.341	C.3	1	LIG1	0.000	
35	 C57	7.354	-2.562	22.070	C.3	1	LIG1	0.000	
36	 C58	8.415	-0.456	24.503	C.3	1	LIG1	0.000	
37	 C59	8.400	-2.615	23.143	C.3	1	LIG1	0.000	
38	 C60	8.986	-1.227	23.257	C.3	1	LIG1	0.000	
@<TRIPOS>BOND
1 5 9 ar
2 5 6 ar
3 8 23 ar
4 7 9 ar
5 2 10 2
6 3 11 2
7 11 33 1
8 4 12 2
9 12 30 1
10 6 13 ar
11 7 13 ar
12 8 14 ar
13 15 16 ar
14 16 21 ar
15 17 20 ar
16 18 19 ar
17 19 25 ar
18 1 20 1
19 15 20 ar
20 10 21 1
21 17 22 ar
22 21 22 ar
23 23 27 ar
24 18 24 ar
25 25 28 ar
26 14 26 ar
27 26 28 ar
28 24 27 ar
29 27 28 ar
30 11 29 1
31 26 30 1
32 30 35 1
33 10 31 1
34 31 36 1
35 29 32 1
36 31 33 1
37 13 34 1
38 35 37 1
39 36 38 1
40 34 37 1
41 12 38 1
42 22 38 1
43 37 38 1
@<TRIPOS>SUBSTRUCTURE
1	LIG1	1	GROUP	1 C	LIG
