# created with PyMOL 3.1.3.1
@<TRIPOS>MOLECULE
predicted
14 14 1                 
SMALL
USER_CHARGES
@<TRIPOS>ATOM
1	CL14	13.751	-1.897	21.469	Cl	1	LIG1	0.000	
2	 O12	6.924	-0.477	20.621	O.2	1	LIG1	0.000	
3	 C15	7.578	-1.406	20.230	C.2	1	LIG1	0.000	
4	 C16	12.541	-0.032	23.052	C.2	1	LIG1	0.000	
5	 C17	10.172	0.009	23.434	C.2	1	LIG1	0.000	
6	 C18	11.132	-1.671	22.002	C.2	1	LIG1	0.000	
7	 C19	11.423	0.526	23.634	C.2	1	LIG1	0.000	
8	 C20	12.397	-1.138	22.243	C.2	1	LIG1	0.000	
9	 C21	10.060	-1.094	22.625	C.2	1	LIG1	0.000	
10	 N22	8.495	-2.037	21.021	N.pl3	1	LIG1	0.000	
11	 C23	7.550	-1.892	18.805	C.3	1	LIG1	0.000	
12	 C24	8.464	-2.869	23.331	C.3	1	LIG1	0.000	
13	 C25	8.659	-1.668	22.391	C.3	1	LIG1	0.000	
14	 F13	11.510	1.585	24.421	 F	1	LIG1	0.000	
@<TRIPOS>BOND
1 2 3 2
2 3 10 1
3 4 8 ar
4 5 7 ar
5 4 7 ar
6 7 14 1
7 1 8 1
8 6 8 ar
9 5 9 ar
10 6 9 ar
11 10 13 1
12 3 11 1
13 9 13 1
14 12 13 1
@<TRIPOS>SUBSTRUCTURE
1	LIG1	1	GROUP	1 C	LIG
