# created with PyMOL 3.1.3.1
@<TRIPOS>MOLECULE
predicted
33 37 1                 
SMALL
USER_CHARGES
@<TRIPOS>ATOM
1	CL26	-14.177	-1.972	-21.717	Cl	1	LIG1	0.000	
2	 N22	-6.123	-6.145	-20.308	N.2	1	LIG1	0.000	
3	 O23	-9.335	-0.112	-21.533	O.2	1	LIG1	0.000	
4	 O24	-6.979	-4.792	-26.054	O.2	1	LIG1	0.000	
5	 O25	-5.835	-3.216	-24.654	O.2	1	LIG1	0.000	
6	 C27	-6.240	-6.294	-21.492	C.2	1	LIG1	0.000	
7	 N28	-7.031	-0.077	-17.623	N.2	1	LIG1	0.000	
8	 C29	-8.712	-1.139	-21.698	C.2	1	LIG1	0.000	
9	 C30	-7.540	-0.748	-18.643	C.2	1	LIG1	0.000	
10	 C31	-13.084	-2.815	-24.017	C.2	1	LIG1	0.000	
11	 C32	-12.009	-3.095	-24.855	C.2	1	LIG1	0.000	
12	 C33	-11.575	-2.101	-22.326	C.2	1	LIG1	0.000	
13	 C34	-3.746	1.749	-20.564	C.2	1	LIG1	0.000	
14	 C35	-4.286	1.074	-21.626	C.2	1	LIG1	0.000	
15	 C36	-12.845	-2.305	-22.761	C.2	1	LIG1	0.000	
16	 C37	-10.681	-2.863	-24.419	C.2	1	LIG1	0.000	
17	 C38	-10.468	-2.315	-23.145	C.2	1	LIG1	0.000	
18	 C39	-5.967	0.684	-17.814	C.2	1	LIG1	0.000	
19	 C40	-4.287	1.647	-19.308	C.2	1	LIG1	0.000	
20	 C41	-5.364	0.270	-21.459	C.2	1	LIG1	0.000	
21	 C42	-7.068	-0.678	-19.936	C.2	1	LIG1	0.000	
22	 C43	-5.388	0.831	-19.093	C.2	1	LIG1	0.000	
23	 C44	-5.941	0.127	-20.174	C.2	1	LIG1	0.000	
24	 N45	-7.616	-1.479	-20.974	N.pl3	1	LIG1	0.000	
25	 N46	-8.282	-3.108	-24.695	N.3	1	LIG1	0.000	
26	 C47	-9.552	-3.172	-25.375	C.3	1	LIG1	0.000	
27	 C48	-4.590	-5.605	-23.189	C.3	1	LIG1	0.000	
28	 C49	-5.259	-6.868	-23.683	C.3	1	LIG1	0.000	
29	 C50	-5.981	-5.879	-22.873	C.3	1	LIG1	0.000	
30	 C51	-8.155	-2.025	-23.865	C.3	1	LIG1	0.000	
31	 C52	-7.166	-5.149	-23.435	C.3	1	LIG1	0.000	
32	 C53	-9.089	-2.163	-22.694	C.3	1	LIG1	0.000	
33	 S54	-7.002	-4.090	-24.813	S.O2	1	LIG1	0.000	
@<TRIPOS>BOND
1 2 6 2
2 6 29 1
3 7 18 ar
4 3 8 2
5 8 24 1
6 7 9 ar
7 10 15 ar
8 10 11 ar
9 12 17 ar
10 13 14 ar
11 14 20 ar
12 1 15 1
13 12 15 ar
14 11 16 ar
15 16 17 ar
16 17 32 1
17 18 22 ar
18 13 19 ar
19 20 23 ar
20 9 21 ar
21 21 23 ar
22 19 22 ar
23 22 23 ar
24 21 24 1
25 25 26 1
26 25 30 1
27 16 26 1
28 27 28 1
29 27 29 1
30 28 29 1
31 29 31 1
32 31 33 1
33 8 32 1
34 30 32 1
35 4 33 2
36 5 33 2
37 25 33 1
@<TRIPOS>SUBSTRUCTURE
1	LIG1	1	GROUP	1 C	LIG
