# created with PyMOL 3.1.3.1
@<TRIPOS>MOLECULE
predicted
34 39 1                 
SMALL
USER_CHARGES
@<TRIPOS>ATOM
1	CL27	13.720	-3.180	21.947	Cl	1	LIG1	0.000	
2	 O24	11.237	2.545	24.205	O.2	1	LIG1	0.000	
3	 O25	6.501	2.660	24.006	O.2	1	LIG1	0.000	
4	 O26	9.094	0.690	21.409	O.2	1	LIG1	0.000	
5	 N28	6.651	-0.633	17.944	N.2	1	LIG1	0.000	
6	 C29	10.690	1.422	24.116	C.2	1	LIG1	0.000	
7	 C30	7.630	2.977	23.918	C.2	1	LIG1	0.000	
8	 C31	8.698	-0.346	21.899	C.2	1	LIG1	0.000	
9	 C32	7.342	-1.027	18.985	C.2	1	LIG1	0.000	
10	 C33	13.489	-0.743	23.082	C.2	1	LIG1	0.000	
11	 C34	12.791	0.314	23.557	C.2	1	LIG1	0.000	
12	 C35	11.418	-1.928	22.604	C.2	1	LIG1	0.000	
13	 C36	3.412	1.408	20.858	C.2	1	LIG1	0.000	
14	 C37	4.098	0.986	21.964	C.2	1	LIG1	0.000	
15	 C38	12.804	-1.875	22.584	C.2	1	LIG1	0.000	
16	 C39	11.412	0.267	23.607	C.2	1	LIG1	0.000	
17	 C40	10.710	-0.891	23.192	C.2	1	LIG1	0.000	
18	 C41	5.501	0.038	18.118	C.2	1	LIG1	0.000	
19	 C42	3.859	1.098	19.587	C.2	1	LIG1	0.000	
20	 C43	5.249	0.289	21.807	C.2	1	LIG1	0.000	
21	 C44	6.946	-0.763	20.295	C.2	1	LIG1	0.000	
22	 C45	5.023	0.377	19.404	C.2	1	LIG1	0.000	
23	 C46	5.739	-0.034	20.529	C.2	1	LIG1	0.000	
24	 N47	8.055	3.742	22.893	N.pl3	1	LIG1	0.000	
25	 N48	7.719	-1.128	21.373	N.pl3	1	LIG1	0.000	
26	 N49	9.351	1.300	24.371	N.pl3	1	LIG1	0.000	
27	 C50	7.131	4.287	21.951	C.3	1	LIG1	0.000	
28	 C51	8.636	2.453	24.877	C.3	1	LIG1	0.000	
29	 C52	7.592	-2.374	22.052	C.3	1	LIG1	0.000	
30	 C53	9.072	-3.274	24.155	C.3	1	LIG1	0.000	
31	 C54	7.767	-2.810	24.371	C.3	1	LIG1	0.000	
32	 C55	8.698	-0.010	24.370	C.3	1	LIG1	0.000	
33	 C56	8.585	-2.306	23.202	C.3	1	LIG1	0.000	
34	 C57	9.212	-0.913	23.207	C.3	1	LIG1	0.000	
@<TRIPOS>BOND
1 5 18 ar
2 2 6 2
3 3 7 2
4 7 28 1
5 4 8 2
6 8 25 1
7 5 9 ar
8 10 11 ar
9 11 16 ar
10 12 15 ar
11 13 14 ar
12 14 20 ar
13 1 15 1
14 10 15 ar
15 6 16 1
16 12 17 ar
17 16 17 ar
18 18 22 ar
19 13 19 ar
20 20 23 ar
21 9 21 ar
22 21 23 ar
23 19 22 ar
24 22 23 ar
25 7 24 1
26 21 25 1
27 25 29 1
28 6 26 1
29 26 32 1
30 24 27 1
31 26 28 1
32 29 33 1
33 30 31 1
34 32 34 1
35 30 33 1
36 31 33 1
37 8 34 1
38 17 34 1
39 33 34 1
@<TRIPOS>SUBSTRUCTURE
1	LIG1	1	GROUP	1 C	LIG
