# created with PyMOL 3.1.3.1
@<TRIPOS>MOLECULE
predicted
22 25 1                 
SMALL
USER_CHARGES
@<TRIPOS>ATOM
1	 O23	8.569	0.280	21.513	O.2	1	LIG1	0.000	
2	 N24	6.342	-0.647	18.027	N.2	1	LIG1	0.000	
3	 C25	8.352	-0.798	22.026	C.2	1	LIG1	0.000	
4	 C26	6.967	-1.227	19.053	C.2	1	LIG1	0.000	
5	 C27	3.214	1.327	21.009	C.2	1	LIG1	0.000	
6	 C28	3.843	0.765	22.070	C.2	1	LIG1	0.000	
7	 C29	5.286	0.076	18.218	C.2	1	LIG1	0.000	
8	 C30	3.676	1.115	19.725	C.2	1	LIG1	0.000	
9	 C31	4.943	-0.008	21.897	C.2	1	LIG1	0.000	
10	 C32	6.552	-1.072	20.325	C.2	1	LIG1	0.000	
11	 C33	4.786	0.327	19.502	C.2	1	LIG1	0.000	
12	 C34	5.433	-0.260	20.616	C.2	1	LIG1	0.000	
13	 N35	9.004	-1.136	23.156	N.pl3	1	LIG1	0.000	
14	 C36	7.335	-1.725	21.455	C.3	1	LIG1	0.000	
15	 C37	9.731	-0.131	23.900	C.3	1	LIG1	0.000	
16	 C38	9.077	-2.481	23.663	C.3	1	LIG1	0.000	
17	 C39	11.182	-0.454	23.750	C.3	1	LIG1	0.000	
18	 C40	10.541	-2.874	23.514	C.3	1	LIG1	0.000	
19	 C41	13.432	-3.211	23.297	C.3	1	LIG1	0.000	
20	 C42	13.546	-3.251	24.797	C.3	1	LIG1	0.000	
21	 C43	11.436	-1.870	24.219	C.3	1	LIG1	0.000	
22	 C44	12.950	-2.078	24.047	C.3	1	LIG1	0.000	
@<TRIPOS>BOND
1 1 3 2
2 2 7 ar
3 3 13 1
4 3 14 1
5 2 4 ar
6 5 6 ar
7 6 9 ar
8 7 11 ar
9 5 8 ar
10 9 12 ar
11 4 10 ar
12 10 12 ar
13 8 11 ar
14 11 12 ar
15 13 15 1
16 13 16 1
17 10 14 1
18 15 17 1
19 17 21 1
20 16 18 1
21 19 20 1
22 18 21 1
23 21 22 1
24 19 22 1
25 20 22 1
@<TRIPOS>SUBSTRUCTURE
1	LIG1	1	GROUP	1 C	LIG
