# created with PyMOL 3.1.3.1
@<TRIPOS>MOLECULE
predicted
15 16 1                 
SMALL
USER_CHARGES
@<TRIPOS>ATOM
1	 O16	9.230	0.989	22.383	O.2	1	LIG1	0.000	
2	 N17	7.315	0.151	18.229	N.2	1	LIG1	0.000	
3	 O18	6.556	1.076	17.565	O.2	1	LIG1	0.000	
4	 C19	9.052	-0.064	21.830	C.2	1	LIG1	0.000	
5	 C20	6.693	-0.168	19.333	C.2	1	LIG1	0.000	
6	 C21	5.448	1.326	18.280	C.2	1	LIG1	0.000	
7	 C22	5.501	0.563	19.425	C.2	1	LIG1	0.000	
8	 N23	7.734	-0.456	21.557	N.pl3	1	LIG1	0.000	
9	 N24	10.072	-0.908	21.514	N.pl3	1	LIG1	0.000	
10	 C25	4.434	2.336	17.860	C.3	1	LIG1	0.000	
11	 C26	6.720	0.093	22.435	C.3	1	LIG1	0.000	
12	 C27	7.295	-1.185	20.428	C.3	1	LIG1	0.000	
13	 C28	12.125	-0.924	23.028	C.3	1	LIG1	0.000	
14	 C29	12.531	-1.460	21.718	C.3	1	LIG1	0.000	
15	 C30	11.484	-0.369	21.819	C.3	1	LIG1	0.000	
@<TRIPOS>BOND
1 2 3 ar
2 1 4 2
3 4 9 1
4 2 5 ar
5 5 12 1
6 3 6 ar
7 6 7 ar
8 5 7 ar
9 4 8 1
10 8 11 1
11 9 15 1
12 6 10 1
13 8 12 1
14 13 14 1
15 13 15 1
16 14 15 1
@<TRIPOS>SUBSTRUCTURE
1	LIG1	1	GROUP	1 C	LIG
