# created with PyMOL 3.1.3.1
@<TRIPOS>MOLECULE
predicted
22 25 1                 
SMALL
USER_CHARGES
@<TRIPOS>ATOM
1	 O23	8.968	0.357	21.405	O.2	1	LIG1	0.000	
2	 N24	6.582	-0.702	18.034	N.2	1	LIG1	0.000	
3	 C25	8.792	-0.718	21.950	C.2	1	LIG1	0.000	
4	 C26	7.266	-1.238	19.053	C.2	1	LIG1	0.000	
5	 C27	3.484	1.246	21.063	C.2	1	LIG1	0.000	
6	 C28	4.165	0.730	22.121	C.2	1	LIG1	0.000	
7	 C29	5.511	-0.007	18.237	C.2	1	LIG1	0.000	
8	 C30	3.910	1.014	19.768	C.2	1	LIG1	0.000	
9	 C31	5.292	-0.010	21.938	C.2	1	LIG1	0.000	
10	 C32	6.899	-1.057	20.345	C.2	1	LIG1	0.000	
11	 C33	5.047	0.259	19.534	C.2	1	LIG1	0.000	
12	 C34	5.750	-0.280	20.639	C.2	1	LIG1	0.000	
13	 N35	9.536	-1.018	23.049	N.pl3	1	LIG1	0.000	
14	 C36	7.745	-1.666	21.458	C.3	1	LIG1	0.000	
15	 C37	10.456	-0.024	23.608	C.3	1	LIG1	0.000	
16	 C38	9.531	-2.337	23.681	C.3	1	LIG1	0.000	
17	 C39	13.979	-2.956	24.725	C.3	1	LIG1	0.000	
18	 C40	11.879	-0.535	23.299	C.3	1	LIG1	0.000	
19	 C41	10.930	-2.960	23.369	C.3	1	LIG1	0.000	
20	 C42	12.568	-2.111	25.186	C.3	1	LIG1	0.000	
21	 C43	13.369	-2.564	23.184	C.3	1	LIG1	0.000	
22	 C44	12.098	-1.994	23.754	C.3	1	LIG1	0.000	
@<TRIPOS>BOND
1 1 3 2
2 2 7 ar
3 3 13 1
4 3 14 1
5 2 4 ar
6 5 6 ar
7 6 9 ar
8 7 11 ar
9 5 8 ar
10 9 12 ar
11 4 10 ar
12 10 12 ar
13 8 11 ar
14 11 12 ar
15 13 15 1
16 13 16 1
17 10 14 1
18 15 18 1
19 17 21 1
20 18 22 1
21 16 19 1
22 17 20 1
23 19 22 1
24 20 22 1
25 21 22 1
@<TRIPOS>SUBSTRUCTURE
1	LIG1	1	GROUP	1 C	LIG
