# created with PyMOL 3.1.3.1
@<TRIPOS>MOLECULE
predicted
18 20 1                 
SMALL
USER_CHARGES
@<TRIPOS>ATOM
1	 O18	-4.906	-2.493	8.939	O.2	1	LIG1	0.000	
2	 O19	-6.608	-8.232	7.400	O.2	1	LIG1	0.000	
3	 O20	-8.133	-6.984	8.479	O.2	1	LIG1	0.000	
4	 C21	-5.522	-2.817	7.992	C.2	1	LIG1	0.000	
5	 C22	-5.038	-6.390	6.944	C.3	1	LIG1	0.000	
6	 C23	-4.848	-5.054	7.107	C.3	1	LIG1	0.000	
7	 C24	-6.934	-4.870	8.266	C.3	1	LIG1	0.000	
8	 C25	-6.190	-6.990	7.424	C.2	1	LIG1	0.000	
9	 C26	-7.109	-6.223	8.091	C.2	1	LIG1	0.000	
10	 C27	-5.796	-4.301	7.770	C.3	1	LIG1	0.000	
11	 N28	-5.991	-1.857	7.202	N.pl3	1	LIG1	0.000	
12	 C29	-7.844	-8.267	8.045	C.2	1	LIG1	0.000	
13	 C30	-5.807	-0.557	7.654	C.3	1	LIG1	0.000	
14	 C31	-6.677	-2.133	5.961	C.3	1	LIG1	0.000	
15	 C32	-6.358	0.649	7.087	C.3	1	LIG1	0.000	
16	 C33	-6.225	-1.328	4.772	C.3	1	LIG1	0.000	
17	 C34	-6.052	0.998	5.688	C.3	1	LIG1	0.000	
18	 C35	-6.698	0.082	4.686	C.3	1	LIG1	0.000	
@<TRIPOS>BOND
1 1 4 2
2 3 12 ar
3 4 10 1
4 4 11 1
5 5 8 1
6 5 6 1
7 2 8 ar
8 8 9 ar
9 3 9 ar
10 7 9 1
11 6 10 1
12 7 10 1
13 11 13 1
14 11 14 1
15 2 12 ar
16 13 15 1
17 15 17 1
18 14 16 1
19 17 18 1
20 16 18 1
@<TRIPOS>SUBSTRUCTURE
1	LIG1	1	GROUP	1 C	LIG
