# created with PyMOL 3.1.3.1
@<TRIPOS>MOLECULE
predicted
44 52 1                 
SMALL
USER_CHARGES
@<TRIPOS>ATOM
1	CL36	13.453	-3.385	22.391	Cl	1	LIG1	0.000	
2	 O34	10.641	2.239	24.412	O.2	1	LIG1	0.000	
3	 O35	8.803	0.436	21.484	O.2	1	LIG1	0.000	
4	 N37	9.123	-5.949	25.381	N.2	1	LIG1	0.000	
5	 N38	7.152	-5.379	26.602	N.2	1	LIG1	0.000	
6	 N39	6.333	-0.744	17.992	N.2	1	LIG1	0.000	
7	 O40	5.327	7.374	22.269	O.3	1	LIG1	0.000	
8	 C41	10.145	1.121	24.242	C.2	1	LIG1	0.000	
9	 C42	8.361	-0.598	21.932	C.2	1	LIG1	0.000	
10	 C43	7.914	-5.335	25.470	C.2	1	LIG1	0.000	
11	 C44	9.600	-6.594	26.437	C.2	1	LIG1	0.000	
12	 C45	7.631	-6.028	27.658	C.2	1	LIG1	0.000	
13	 C46	7.015	-1.176	19.044	C.2	1	LIG1	0.000	
14	 C47	8.887	-6.650	27.621	C.2	1	LIG1	0.000	
15	 C48	13.065	-0.990	23.376	C.2	1	LIG1	0.000	
16	 C49	12.317	0.064	23.782	C.2	1	LIG1	0.000	
17	 C50	11.061	-2.225	22.842	C.2	1	LIG1	0.000	
18	 C51	3.048	1.239	20.899	C.2	1	LIG1	0.000	
19	 C52	3.732	0.795	22.022	C.2	1	LIG1	0.000	
20	 C53	12.460	-2.131	22.908	C.2	1	LIG1	0.000	
21	 C54	10.938	-0.014	23.769	C.2	1	LIG1	0.000	
22	 C55	10.302	-1.184	23.336	C.2	1	LIG1	0.000	
23	 C56	5.192	-0.075	18.165	C.2	1	LIG1	0.000	
24	 C57	3.535	0.942	19.629	C.2	1	LIG1	0.000	
25	 C58	4.869	0.075	21.866	C.2	1	LIG1	0.000	
26	 C59	6.586	-0.922	20.342	C.2	1	LIG1	0.000	
27	 C60	4.690	0.225	19.446	C.2	1	LIG1	0.000	
28	 C61	5.383	-0.202	20.582	C.2	1	LIG1	0.000	
29	 N62	7.479	-4.602	24.385	N.pl3	1	LIG1	0.000	
30	 N63	7.355	-1.336	21.417	N.pl3	1	LIG1	0.000	
31	 N64	8.786	0.960	24.435	N.pl3	1	LIG1	0.000	
32	 C65	5.894	6.073	21.570	C.3	1	LIG1	0.000	
33	 C66	5.347	6.601	23.562	C.3	1	LIG1	0.000	
34	 C67	8.000	2.038	24.903	C.3	1	LIG1	0.000	
35	 C68	5.970	5.497	22.866	C.3	1	LIG1	0.000	
36	 C69	7.716	-3.167	24.438	C.3	1	LIG1	0.000	
37	 C70	7.142	-2.543	22.119	C.3	1	LIG1	0.000	
38	 C71	8.197	-0.355	24.393	C.3	1	LIG1	0.000	
39	 C72	7.183	2.510	23.719	C.3	1	LIG1	0.000	
40	 C73	7.267	4.960	23.438	C.3	1	LIG1	0.000	
41	 C74	5.438	4.111	23.119	C.3	1	LIG1	0.000	
42	 C75	8.206	-2.586	23.212	C.3	1	LIG1	0.000	
43	 C76	8.796	-1.211	23.264	C.3	1	LIG1	0.000	
44	 N77	6.629	3.756	23.943	N.3	1	LIG1	0.000	
@<TRIPOS>BOND
1 2 8 2
2 4 11 ar
3 6 23 ar
4 7 33 1
5 8 21 1
6 8 31 1
7 3 9 2
8 9 30 1
9 4 10 ar
10 5 10 ar
11 11 14 ar
12 5 12 ar
13 6 13 ar
14 12 14 ar
15 15 20 ar
16 15 16 ar
17 17 22 ar
18 18 19 ar
19 19 25 ar
20 1 20 1
21 17 20 ar
22 16 21 ar
23 21 22 ar
24 22 43 1
25 23 27 ar
26 18 24 ar
27 25 28 ar
28 13 26 ar
29 26 28 ar
30 24 27 ar
31 27 28 ar
32 10 29 1
33 26 30 1
34 30 37 1
35 31 34 1
36 7 32 1
37 34 39 1
38 32 35 1
39 33 35 1
40 35 41 1
41 29 36 1
42 37 42 1
43 31 38 1
44 39 44 1
45 35 40 1
46 40 41 1
47 36 42 1
48 9 43 1
49 38 43 1
50 42 43 1
51 40 44 1
52 41 44 1
@<TRIPOS>SUBSTRUCTURE
1	LIG1	1	GROUP	1 C	LIG
