# created with PyMOL 3.1.3.1
@<TRIPOS>MOLECULE
predicted
34 38 1                 
SMALL
USER_CHARGES
@<TRIPOS>ATOM
1	CL29	13.496	-3.374	22.064	Cl	1	LIG1	0.000	
2	 O26	11.238	2.394	24.310	O.2	1	LIG1	0.000	
3	 O27	6.361	2.286	24.617	O.2	1	LIG1	0.000	
4	 O28	9.011	0.590	21.520	O.2	1	LIG1	0.000	
5	 N30	6.582	-0.745	18.056	N.2	1	LIG1	0.000	
6	 C31	10.649	1.308	24.230	C.2	1	LIG1	0.000	
7	 C32	7.406	2.725	24.238	C.2	1	LIG1	0.000	
8	 C33	8.567	-0.426	22.051	C.2	1	LIG1	0.000	
9	 C34	7.241	-1.139	19.121	C.2	1	LIG1	0.000	
10	 C35	13.355	-0.979	23.142	C.2	1	LIG1	0.000	
11	 C36	12.712	0.101	23.645	C.2	1	LIG1	0.000	
12	 C37	11.237	-2.061	22.700	C.2	1	LIG1	0.000	
13	 C38	3.265	1.391	20.861	C.2	1	LIG1	0.000	
14	 C39	3.924	0.979	21.995	C.2	1	LIG1	0.000	
15	 C40	12.625	-2.067	22.650	C.2	1	LIG1	0.000	
16	 C41	11.323	0.116	23.708	C.2	1	LIG1	0.000	
17	 C42	10.571	-1.019	23.325	C.2	1	LIG1	0.000	
18	 C43	5.445	-0.051	18.191	C.2	1	LIG1	0.000	
19	 C44	3.765	1.051	19.604	C.2	1	LIG1	0.000	
20	 C45	5.076	0.258	21.873	C.2	1	LIG1	0.000	
21	 C46	6.815	-0.815	20.421	C.2	1	LIG1	0.000	
22	 C47	4.931	0.320	19.465	C.2	1	LIG1	0.000	
23	 C48	5.607	-0.083	20.621	C.2	1	LIG1	0.000	
24	 N49	7.512	3.404	23.072	N.pl3	1	LIG1	0.000	
25	 N50	7.573	-1.179	21.524	N.pl3	1	LIG1	0.000	
26	 N51	9.302	1.243	24.495	N.pl3	1	LIG1	0.000	
27	 C52	6.360	3.711	22.276	C.3	1	LIG1	0.000	
28	 C53	8.668	2.425	25.015	C.3	1	LIG1	0.000	
29	 C54	7.027	-2.340	24.415	C.3	1	LIG1	0.000	
30	 C55	9.123	-3.438	23.925	C.3	1	LIG1	0.000	
31	 C56	7.393	-2.426	22.220	C.3	1	LIG1	0.000	
32	 C57	8.622	-0.055	24.548	C.3	1	LIG1	0.000	
33	 C58	8.281	-2.309	23.488	C.3	1	LIG1	0.000	
34	 C59	9.059	-0.988	23.380	C.3	1	LIG1	0.000	
@<TRIPOS>BOND
1 5 18 ar
2 2 6 2
3 3 7 2
4 7 28 1
5 4 8 2
6 8 25 1
7 5 9 ar
8 10 11 ar
9 11 16 ar
10 12 15 ar
11 13 14 ar
12 14 20 ar
13 1 15 1
14 10 15 ar
15 6 16 1
16 12 17 ar
17 16 17 ar
18 18 22 ar
19 13 19 ar
20 20 23 ar
21 9 21 ar
22 21 23 ar
23 19 22 ar
24 22 23 ar
25 7 24 1
26 21 25 1
27 25 31 1
28 6 26 1
29 26 32 1
30 24 27 1
31 26 28 1
32 31 33 1
33 32 34 1
34 29 33 1
35 30 33 1
36 8 34 1
37 17 34 1
38 33 34 1
@<TRIPOS>SUBSTRUCTURE
1	LIG1	1	GROUP	1 C	LIG
