# created with PyMOL 3.1.3.1
@<TRIPOS>MOLECULE
predicted
30 34 1                 
SMALL
USER_CHARGES
@<TRIPOS>ATOM
1	 O17	5.322	-3.656	21.103	O.2	1	LIG1	0.000	
2	 O18	8.395	-0.436	21.819	O.2	1	LIG1	0.000	
3	 O19	3.722	-0.935	26.544	O.2	1	LIG1	0.000	
4	 O20	4.963	1.027	27.332	O.2	1	LIG1	0.000	
5	 N21	6.326	-0.574	17.758	N.2	1	LIG1	0.000	
6	 O22	9.722	-2.804	25.192	O.3	1	LIG1	0.000	
7	 C23	6.235	-3.097	21.569	C.2	1	LIG1	0.000	
8	 C24	7.779	-1.473	21.925	C.2	1	LIG1	0.000	
9	 C25	6.790	-1.244	18.769	C.2	1	LIG1	0.000	
10	 C26	8.330	-1.620	26.636	C.2	1	LIG1	0.000	
11	 C27	7.158	-0.944	26.906	C.2	1	LIG1	0.000	
12	 C28	6.456	-1.258	24.636	C.2	1	LIG1	0.000	
13	 C29	3.065	1.473	20.619	C.2	1	LIG1	0.000	
14	 C30	3.541	0.776	21.683	C.2	1	LIG1	0.000	
15	 C31	8.555	-2.104	25.391	C.2	1	LIG1	0.000	
16	 C32	7.654	-1.953	24.346	C.2	1	LIG1	0.000	
17	 C33	6.224	-0.765	25.902	C.2	1	LIG1	0.000	
18	 C34	5.262	0.225	17.914	C.2	1	LIG1	0.000	
19	 C35	3.616	1.312	19.369	C.2	1	LIG1	0.000	
20	 C36	4.587	-0.087	21.532	C.2	1	LIG1	0.000	
21	 C37	6.250	-1.148	20.023	C.2	1	LIG1	0.000	
22	 C38	4.667	0.434	19.180	C.2	1	LIG1	0.000	
23	 C39	5.159	-0.264	20.262	C.2	1	LIG1	0.000	
24	 N40	6.741	-1.872	21.124	N.pl3	1	LIG1	0.000	
25	 N41	6.898	-3.457	22.636	N.pl3	1	LIG1	0.000	
26	 N42	4.299	0.937	25.001	N.3	1	LIG1	0.000	
27	 C43	10.225	-3.013	23.885	C.3	1	LIG1	0.000	
28	 C44	9.269	-3.210	22.819	C.3	1	LIG1	0.000	
29	 C45	7.905	-2.506	22.975	C.3	1	LIG1	0.000	
30	 S46	4.736	0.073	26.241	S.O2	1	LIG1	0.000	
@<TRIPOS>BOND
1 5 18 ar
2 1 7 2
3 7 24 1
4 2 8 2
5 5 9 ar
6 10 15 ar
7 10 11 ar
8 13 14 ar
9 14 20 ar
10 6 15 1
11 15 16 ar
12 12 16 ar
13 16 29 1
14 11 17 ar
15 12 17 ar
16 18 22 ar
17 13 19 ar
18 20 23 ar
19 9 21 ar
20 21 23 ar
21 19 22 ar
22 22 23 ar
23 8 24 1
24 21 24 1
25 7 25 1
26 26 30 1
27 6 27 1
28 27 28 1
29 8 29 1
30 25 29 1
31 28 29 1
32 3 30 2
33 4 30 2
34 17 30 1
@<TRIPOS>SUBSTRUCTURE
1	LIG1	1	GROUP	1 C	LIG
