# created with PyMOL 3.1.3.1
@<TRIPOS>MOLECULE
predicted
37 41 1                 
SMALL
USER_CHARGES
@<TRIPOS>ATOM
1	CL33	13.628	-3.226	21.921	Cl	1	LIG1	0.000	
2	 O30	10.907	2.244	24.556	O.2	1	LIG1	0.000	
3	 O31	6.074	1.863	24.496	O.2	1	LIG1	0.000	
4	 O32	8.847	0.521	21.595	O.2	1	LIG1	0.000	
5	 N34	6.494	-0.707	18.084	N.2	1	LIG1	0.000	
6	 O35	8.315	-4.580	24.530	O.3	1	LIG1	0.000	
7	 C36	10.401	1.119	24.374	C.2	1	LIG1	0.000	
8	 C37	7.133	2.337	24.285	C.2	1	LIG1	0.000	
9	 C38	8.465	-0.552	22.058	C.2	1	LIG1	0.000	
10	 C39	7.174	-1.123	19.134	C.2	1	LIG1	0.000	
11	 C40	13.279	-0.866	23.144	C.2	1	LIG1	0.000	
12	 C41	12.554	0.129	23.699	C.2	1	LIG1	0.000	
13	 C42	11.251	-2.095	22.645	C.2	1	LIG1	0.000	
14	 C43	3.077	1.052	20.998	C.2	1	LIG1	0.000	
15	 C44	3.748	0.593	22.114	C.2	1	LIG1	0.000	
16	 C45	12.634	-1.984	22.599	C.2	1	LIG1	0.000	
17	 C46	11.179	0.033	23.769	C.2	1	LIG1	0.000	
18	 C47	10.521	-1.127	23.301	C.2	1	LIG1	0.000	
19	 C48	5.318	-0.081	18.260	C.2	1	LIG1	0.000	
20	 C49	3.593	0.836	19.717	C.2	1	LIG1	0.000	
21	 C50	4.925	-0.068	21.977	C.2	1	LIG1	0.000	
22	 C51	6.685	-0.948	20.444	C.2	1	LIG1	0.000	
23	 C52	4.774	0.170	19.543	C.2	1	LIG1	0.000	
24	 C53	5.462	-0.279	20.697	C.2	1	LIG1	0.000	
25	 N54	7.376	3.072	23.186	N.pl3	1	LIG1	0.000	
26	 N55	7.476	-1.323	21.524	N.pl3	1	LIG1	0.000	
27	 N56	9.048	0.943	24.629	N.pl3	1	LIG1	0.000	
28	 C57	6.340	3.426	22.281	C.3	1	LIG1	0.000	
29	 C58	8.295	2.030	25.192	C.3	1	LIG1	0.000	
30	 C59	8.581	-6.727	25.452	C.3	1	LIG1	0.000	
31	 C60	8.175	-4.759	26.975	C.3	1	LIG1	0.000	
32	 C61	8.751	-5.285	25.688	C.3	1	LIG1	0.000	
33	 C62	8.519	-3.269	24.537	C.3	1	LIG1	0.000	
34	 C63	7.359	-2.567	22.244	C.3	1	LIG1	0.000	
35	 C64	8.473	-0.397	24.566	C.3	1	LIG1	0.000	
36	 C65	8.461	-2.572	23.237	C.3	1	LIG1	0.000	
37	 C66	9.009	-1.179	23.314	C.3	1	LIG1	0.000	
@<TRIPOS>BOND
1 5 19 ar
2 6 32 1
3 2 7 2
4 3 8 2
5 8 29 1
6 4 9 2
7 9 26 1
8 5 10 ar
9 11 12 ar
10 12 17 ar
11 13 16 ar
12 14 15 ar
13 15 21 ar
14 1 16 1
15 11 16 ar
16 7 17 1
17 13 18 ar
18 17 18 ar
19 19 23 ar
20 14 20 ar
21 21 24 ar
22 10 22 ar
23 22 24 ar
24 20 23 ar
25 23 24 ar
26 8 25 1
27 22 26 1
28 26 34 1
29 7 27 1
30 27 35 1
31 25 28 1
32 27 29 1
33 30 32 1
34 31 32 1
35 6 33 1
36 34 36 1
37 35 37 1
38 33 36 1
39 9 37 1
40 18 37 1
41 36 37 1
@<TRIPOS>SUBSTRUCTURE
1	LIG1	1	GROUP	1 C	LIG
