# created with PyMOL 3.1.3.1
@<TRIPOS>MOLECULE
predicted
33 36 1                 
SMALL
USER_CHARGES
@<TRIPOS>ATOM
1	CL29	13.674	-1.556	21.715	Cl	1	LIG1	0.000	
2	 O25	6.235	-4.912	25.455	O.2	1	LIG1	0.000	
3	 O26	8.835	0.201	21.451	O.2	1	LIG1	0.000	
4	 O27	1.377	2.411	22.167	O.2	1	LIG1	0.000	
5	 O28	1.051	2.744	19.819	O.2	1	LIG1	0.000	
6	 N30	6.636	0.270	17.562	N.2	1	LIG1	0.000	
7	 C31	6.492	-4.043	26.227	C.2	1	LIG1	0.000	
8	 C32	8.243	-0.832	21.611	C.2	1	LIG1	0.000	
9	 C33	7.147	-0.436	18.575	C.2	1	LIG1	0.000	
10	 C34	12.592	-2.489	23.910	C.3	1	LIG1	0.000	
11	 C35	11.522	-2.806	24.732	C.3	1	LIG1	0.000	
12	 C36	11.070	-1.700	22.269	C.3	1	LIG1	0.000	
13	 C37	3.927	1.235	21.645	C.2	1	LIG1	0.000	
14	 C38	12.350	-1.922	22.686	C.3	1	LIG1	0.000	
15	 C39	10.215	-2.561	24.323	C.3	1	LIG1	0.000	
16	 C40	9.974	-1.967	23.081	C.3	1	LIG1	0.000	
17	 C41	3.359	1.956	20.597	C.2	1	LIG1	0.000	
18	 C42	5.560	1.015	17.768	C.2	1	LIG1	0.000	
19	 C43	3.889	1.898	19.326	C.2	1	LIG1	0.000	
20	 C44	5.000	0.466	21.419	C.2	1	LIG1	0.000	
21	 C45	6.649	-0.406	19.851	C.2	1	LIG1	0.000	
22	 C46	4.981	1.119	19.065	C.2	1	LIG1	0.000	
23	 C47	5.532	0.398	20.129	C.2	1	LIG1	0.000	
24	 N48	7.179	-1.231	20.885	N.pl3	1	LIG1	0.000	
25	 N49	6.724	-4.201	27.503	N.pl3	1	LIG1	0.000	
26	 C50	6.601	-5.479	28.092	C.3	1	LIG1	0.000	
27	 C51	6.738	-2.667	25.724	C.3	1	LIG1	0.000	
28	 C52	9.097	-2.863	25.282	C.3	1	LIG1	0.000	
29	 C53	7.646	-1.648	23.824	C.3	1	LIG1	0.000	
30	 C54	2.499	4.566	21.071	C.3	1	LIG1	0.000	
31	 C55	8.576	-1.831	22.649	C.3	1	LIG1	0.000	
32	 N56	7.744	-2.715	24.686	N.3	1	LIG1	0.000	
33	 S57	1.971	2.899	20.914	S.O2	1	LIG1	0.000	
@<TRIPOS>BOND
1 6 18 ar
2 2 7 2
3 7 27 1
4 3 8 2
5 8 24 1
6 6 9 ar
7 10 14 1
8 10 11 1
9 12 16 1
10 13 20 ar
11 1 14 1
12 12 14 1
13 11 15 1
14 15 16 1
15 16 31 1
16 13 17 ar
17 17 33 1
18 18 22 ar
19 17 19 ar
20 20 23 ar
21 9 21 ar
22 21 23 ar
23 19 22 ar
24 22 23 ar
25 21 24 1
26 7 25 1
27 25 26 1
28 27 32 1
29 15 28 1
30 8 31 1
31 29 31 1
32 28 32 1
33 29 32 1
34 4 33 2
35 5 33 2
36 30 33 1
@<TRIPOS>SUBSTRUCTURE
1	LIG1	1	GROUP	1 C	LIG
