# created with PyMOL 3.1.3.1
@<TRIPOS>MOLECULE
predicted
36 41 1                 
SMALL
USER_CHARGES
@<TRIPOS>ATOM
1	CL27	13.389	-3.313	22.282	Cl	1	LIG1	0.000	
2	 O25	10.156	2.151	24.248	O.2	1	LIG1	0.000	
3	 O26	8.592	0.290	21.222	O.2	1	LIG1	0.000	
4	 N28	6.297	-0.826	17.677	N.2	1	LIG1	0.000	
5	 N29	5.660	3.030	23.768	N.pl3	1	LIG1	0.000	
6	 O30	7.068	-4.369	24.290	O.3	1	LIG1	0.000	
7	 C31	9.733	1.013	24.077	C.2	1	LIG1	0.000	
8	 C32	8.165	-0.751	21.670	C.2	1	LIG1	0.000	
9	 C33	6.933	-1.271	18.735	C.2	1	LIG1	0.000	
10	 C34	5.336	3.554	22.548	C.2	1	LIG1	0.000	
11	 C35	12.823	-0.899	23.258	C.2	1	LIG1	0.000	
12	 C36	11.994	0.111	23.645	C.2	1	LIG1	0.000	
13	 C37	10.926	-2.248	22.656	C.2	1	LIG1	0.000	
14	 C38	2.880	1.064	20.488	C.2	1	LIG1	0.000	
15	 C39	3.513	0.584	21.616	C.2	1	LIG1	0.000	
16	 C40	12.303	-2.070	22.754	C.2	1	LIG1	0.000	
17	 C41	10.629	-0.053	23.584	C.2	1	LIG1	0.000	
18	 C42	10.077	-1.264	23.127	C.2	1	LIG1	0.000	
19	 C43	5.146	-0.153	17.813	C.2	1	LIG1	0.000	
20	 C44	3.418	0.818	19.230	C.2	1	LIG1	0.000	
21	 C45	4.667	-0.117	21.493	C.2	1	LIG1	0.000	
22	 C46	6.449	-1.062	20.028	C.2	1	LIG1	0.000	
23	 C47	6.825	2.470	23.686	C.2	1	LIG1	0.000	
24	 C48	6.365	3.318	21.735	C.2	1	LIG1	0.000	
25	 C49	4.586	0.115	19.081	C.2	1	LIG1	0.000	
26	 C50	5.238	-0.352	20.231	C.2	1	LIG1	0.000	
27	 N51	7.170	-1.486	21.110	N.pl3	1	LIG1	0.000	
28	 N52	8.388	0.728	24.278	N.pl3	1	LIG1	0.000	
29	 N53	7.284	2.653	22.461	N.2	1	LIG1	0.000	
30	 C54	7.106	-5.043	25.514	C.3	1	LIG1	0.000	
31	 C55	7.522	1.717	24.818	C.3	1	LIG1	0.000	
32	 C56	8.054	-3.503	24.111	C.3	1	LIG1	0.000	
33	 C57	7.000	-2.728	21.805	C.3	1	LIG1	0.000	
34	 C58	7.870	-0.619	24.136	C.3	1	LIG1	0.000	
35	 C59	8.076	-2.774	22.841	C.3	1	LIG1	0.000	
36	 C60	8.586	-1.369	22.982	C.3	1	LIG1	0.000	
@<TRIPOS>BOND
1 4 19 ar
2 5 10 ar
3 6 32 1
4 2 7 2
5 7 17 1
6 3 8 2
7 8 36 1
8 4 9 ar
9 10 24 ar
10 11 16 ar
11 11 12 ar
12 13 18 ar
13 14 15 ar
14 15 21 ar
15 1 16 1
16 13 16 ar
17 12 17 ar
18 17 18 ar
19 19 25 ar
20 14 20 ar
21 21 26 ar
22 9 22 ar
23 22 26 ar
24 5 23 ar
25 23 29 ar
26 24 29 ar
27 20 25 ar
28 25 26 ar
29 8 27 1
30 22 27 1
31 7 28 1
32 28 31 1
33 6 30 1
34 23 31 1
35 32 35 1
36 27 33 1
37 28 34 1
38 33 35 1
39 35 36 1
40 18 36 1
41 34 36 1
@<TRIPOS>SUBSTRUCTURE
1	LIG1	1	GROUP	1 C	LIG
