# created with PyMOL 3.1.3.1
@<TRIPOS>MOLECULE
predicted
29 30 1                 
SMALL
USER_CHARGES
@<TRIPOS>ATOM
1	CL26	13.719	-2.938	22.373	Cl	1	LIG1	0.000	
2	 O21	8.357	-0.206	21.158	O.2	1	LIG1	0.000	
3	 O22	4.183	-3.343	20.073	O.2	1	LIG1	0.000	
4	 O23	5.905	-4.297	18.708	O.2	1	LIG1	0.000	
5	 O24	13.605	6.206	25.885	O.2	1	LIG1	0.000	
6	 O25	13.551	6.685	23.520	O.2	1	LIG1	0.000	
7	 O27	6.431	-2.533	20.358	O.3	1	LIG1	0.000	
8	 C28	8.223	-1.393	21.113	C.2	1	LIG1	0.000	
9	 C29	11.113	2.525	24.469	C.2	1	LIG1	0.000	
10	 C30	13.236	2.348	23.389	C.2	1	LIG1	0.000	
11	 C31	12.798	-0.502	23.161	C.2	1	LIG1	0.000	
12	 C32	11.250	-2.263	22.917	C.2	1	LIG1	0.000	
13	 C33	10.574	-0.096	23.605	C.2	1	LIG1	0.000	
14	 C34	11.378	3.853	24.739	C.2	1	LIG1	0.000	
15	 C35	13.463	3.692	23.659	C.2	1	LIG1	0.000	
16	 C36	12.503	-1.825	22.854	C.2	1	LIG1	0.000	
17	 C37	12.073	1.770	23.822	C.2	1	LIG1	0.000	
18	 C38	11.805	0.366	23.520	C.2	1	LIG1	0.000	
19	 C39	10.279	-1.393	23.310	C.2	1	LIG1	0.000	
20	 C40	12.530	4.441	24.324	C.2	1	LIG1	0.000	
21	 N41	8.469	-2.270	22.099	N.pl3	1	LIG1	0.000	
22	 N42	5.232	-1.943	18.159	N.3	1	LIG1	0.000	
23	 N43	11.507	6.850	24.876	N.3	1	LIG1	0.000	
24	 C44	7.675	-2.076	19.905	C.3	1	LIG1	0.000	
25	 C45	4.936	-0.607	18.537	C.3	1	LIG1	0.000	
26	 C46	8.673	-2.866	24.515	C.3	1	LIG1	0.000	
27	 C47	8.864	-1.829	23.422	C.3	1	LIG1	0.000	
28	 S48	5.427	-3.096	19.333	S.3	1	LIG1	0.000	
29	 S49	12.846	6.113	24.652	S.O2	1	LIG1	0.000	
@<TRIPOS>BOND
1 7 24 1
2 2 8 2
3 8 21 1
4 9 14 ar
5 11 18 ar
6 12 16 ar
7 14 20 ar
8 10 15 ar
9 1 16 1
10 11 16 ar
11 9 17 ar
12 10 17 ar
13 13 18 ar
14 17 18 1
15 12 19 ar
16 13 19 ar
17 15 20 ar
18 20 29 1
19 21 27 1
20 22 28 1
21 8 24 1
22 22 25 1
23 19 27 1
24 26 27 1
25 3 28 2
26 4 28 2
27 7 28 1
28 5 29 2
29 6 29 2
30 23 29 1
@<TRIPOS>SUBSTRUCTURE
1	LIG1	1	GROUP	1 C	LIG
