# created with PyMOL 3.1.3.1
@<TRIPOS>MOLECULE
predicted
34 39 1                 
SMALL
USER_CHARGES
@<TRIPOS>ATOM
1	 O22	11.299	2.143	24.400	O.2	1	LIG1	0.000	
2	 O23	9.142	0.440	21.518	O.2	1	LIG1	0.000	
3	 N25	7.991	2.812	22.797	N.3	1	LIG1	0.000	
4	 N26	6.670	-0.653	18.063	N.2	1	LIG1	0.000	
5	 O27	6.049	3.554	23.409	O.3	1	LIG1	0.000	
6	 C28	10.761	1.032	24.221	C.2	1	LIG1	0.000	
7	 C29	8.748	-0.612	21.990	C.2	1	LIG1	0.000	
8	 C30	6.836	3.278	22.382	C.3	1	LIG1	0.000	
9	 C31	7.364	-1.101	19.089	C.2	1	LIG1	0.000	
10	 C32	8.054	2.879	24.118	C.3	1	LIG1	0.000	
11	 C33	6.745	3.409	24.502	C.3	1	LIG1	0.000	
12	 C34	13.592	-1.043	22.987	C.2	1	LIG1	0.000	
13	 C35	12.892	-0.002	23.521	C.2	1	LIG1	0.000	
14	 C36	11.529	-2.262	22.577	C.2	1	LIG1	0.000	
15	 C37	3.344	1.137	21.060	C.2	1	LIG1	0.000	
16	 C38	4.030	0.657	22.145	C.2	1	LIG1	0.000	
17	 C39	12.926	-2.176	22.512	C.2	1	LIG1	0.000	
18	 C40	11.504	-0.076	23.620	C.2	1	LIG1	0.000	
19	 C41	10.809	-1.234	23.199	C.2	1	LIG1	0.000	
20	 C42	5.509	-0.006	18.260	C.2	1	LIG1	0.000	
21	 C43	3.829	0.922	19.777	C.2	1	LIG1	0.000	
22	 C44	5.200	-0.015	21.961	C.2	1	LIG1	0.000	
23	 C45	6.934	-0.920	20.408	C.2	1	LIG1	0.000	
24	 C46	5.010	0.244	19.560	C.2	1	LIG1	0.000	
25	 C47	5.719	-0.228	20.675	C.2	1	LIG1	0.000	
26	 N48	7.720	-1.334	21.472	N.pl3	1	LIG1	0.000	
27	 N49	9.404	0.867	24.511	N.pl3	1	LIG1	0.000	
28	 C50	8.658	1.925	25.135	C.3	1	LIG1	0.000	
29	 C51	8.694	-3.454	24.342	C.3	1	LIG1	0.000	
30	 C52	7.579	-2.590	22.155	C.3	1	LIG1	0.000	
31	 C53	8.780	-0.460	24.454	C.3	1	LIG1	0.000	
32	 C54	8.698	-2.636	23.145	C.3	1	LIG1	0.000	
33	 C55	9.310	-1.258	23.241	C.3	1	LIG1	0.000	
34	 F24	13.648	-3.175	21.994	 F	1	LIG1	0.000	
@<TRIPOS>BOND
1 4 20 ar
2 5 8 1
3 1 6 2
4 6 18 1
5 2 7 2
6 7 33 1
7 3 8 1
8 4 9 ar
9 3 10 1
10 10 11 1
11 5 11 1
12 12 17 ar
13 12 13 ar
14 14 19 ar
15 15 16 ar
16 16 22 ar
17 14 17 ar
18 17 34 1
19 13 18 ar
20 18 19 ar
21 20 24 ar
22 15 21 ar
23 22 25 ar
24 9 23 ar
25 23 25 ar
26 21 24 ar
27 24 25 ar
28 7 26 1
29 23 26 1
30 6 27 1
31 27 28 1
32 10 28 1
33 29 32 1
34 26 30 1
35 27 31 1
36 30 32 1
37 32 33 1
38 19 33 1
39 31 33 1
@<TRIPOS>SUBSTRUCTURE
1	LIG1	1	GROUP	1 C	LIG
