# created with PyMOL 3.1.3.1
@<TRIPOS>MOLECULE
predicted
35 40 1                 
SMALL
USER_CHARGES
@<TRIPOS>ATOM
1	 O25	10.684	2.025	24.440	O.2	1	LIG1	0.000	
2	 O26	8.909	0.204	21.411	O.2	1	LIG1	0.000	
3	 N28	6.448	-0.817	17.919	N.2	1	LIG1	0.000	
4	 N29	5.281	3.109	23.167	N.2	1	LIG1	0.000	
5	 C30	10.213	0.900	24.264	C.2	1	LIG1	0.000	
6	 C31	8.446	-0.820	21.886	C.2	1	LIG1	0.000	
7	 C32	6.208	3.263	22.279	C.2	1	LIG1	0.000	
8	 C33	7.117	-1.254	18.971	C.2	1	LIG1	0.000	
9	 C34	13.188	-1.192	23.380	C.2	1	LIG1	0.000	
10	 C35	12.422	-0.133	23.793	C.2	1	LIG1	0.000	
11	 C36	11.199	-2.441	22.799	C.2	1	LIG1	0.000	
12	 C37	2.970	0.830	20.801	C.2	1	LIG1	0.000	
13	 C38	3.630	0.354	21.911	C.2	1	LIG1	0.000	
14	 C39	7.399	2.796	22.823	C.2	1	LIG1	0.000	
15	 C40	12.598	-2.337	22.885	C.2	1	LIG1	0.000	
16	 C41	11.040	-0.214	23.756	C.2	1	LIG1	0.000	
17	 C42	10.414	-1.401	23.306	C.2	1	LIG1	0.000	
18	 C43	5.276	-0.202	18.085	C.2	1	LIG1	0.000	
19	 C44	3.512	0.645	19.533	C.2	1	LIG1	0.000	
20	 C45	4.826	-0.279	21.767	C.2	1	LIG1	0.000	
21	 C46	6.649	-1.093	20.280	C.2	1	LIG1	0.000	
22	 C47	7.109	2.351	24.093	C.2	1	LIG1	0.000	
23	 C48	4.719	0.011	19.359	C.2	1	LIG1	0.000	
24	 C49	5.402	-0.453	20.496	C.2	1	LIG1	0.000	
25	 N50	7.405	-1.511	21.368	N.pl3	1	LIG1	0.000	
26	 N51	8.851	0.694	24.485	N.pl3	1	LIG1	0.000	
27	 N52	5.838	2.583	24.288	N.2	1	LIG1	0.000	
28	 C53	8.074	1.737	25.094	C.3	1	LIG1	0.000	
29	 C54	5.064	2.269	25.471	C.3	1	LIG1	0.000	
30	 C55	8.105	-3.599	24.314	C.3	1	LIG1	0.000	
31	 C56	7.189	-2.737	22.083	C.3	1	LIG1	0.000	
32	 C57	8.263	-0.638	24.366	C.3	1	LIG1	0.000	
33	 C58	8.327	-2.821	23.073	C.3	1	LIG1	0.000	
34	 C59	8.907	-1.438	23.197	C.3	1	LIG1	0.000	
35	 F27	13.384	-3.344	22.498	 F	1	LIG1	0.000	
@<TRIPOS>BOND
1 3 18 ar
2 4 27 ar
3 1 5 2
4 5 16 1
5 2 6 2
6 6 34 1
7 4 7 ar
8 3 8 ar
9 9 15 ar
10 9 10 ar
11 11 17 ar
12 12 13 ar
13 13 20 ar
14 7 14 ar
15 11 15 ar
16 15 35 1
17 10 16 ar
18 16 17 ar
19 18 23 ar
20 12 19 ar
21 20 24 ar
22 8 21 ar
23 21 24 ar
24 14 22 ar
25 22 27 ar
26 19 23 ar
27 23 24 ar
28 6 25 1
29 21 25 1
30 5 26 1
31 26 28 1
32 27 29 1
33 22 28 1
34 30 33 1
35 25 31 1
36 26 32 1
37 31 33 1
38 33 34 1
39 17 34 1
40 32 34 1
@<TRIPOS>SUBSTRUCTURE
1	LIG1	1	GROUP	1 C	LIG
