# created with PyMOL 3.1.3.1
@<TRIPOS>MOLECULE
predicted
36 41 1                 
SMALL
USER_CHARGES
@<TRIPOS>ATOM
1	CL27	13.710	-3.189	21.891	Cl	1	LIG1	0.000	
2	 O25	10.964	2.204	24.703	O.2	1	LIG1	0.000	
3	 O26	8.965	0.471	21.649	O.2	1	LIG1	0.000	
4	 N28	6.604	-0.685	18.132	N.2	1	LIG1	0.000	
5	 N29	5.703	3.449	23.348	N.pl3	1	LIG1	0.000	
6	 O30	7.880	-4.136	25.002	O.3	1	LIG1	0.000	
7	 C31	10.465	1.083	24.488	C.2	1	LIG1	0.000	
8	 C32	8.580	-0.588	22.110	C.2	1	LIG1	0.000	
9	 C33	6.110	2.865	24.543	C.2	1	LIG1	0.000	
10	 C34	7.276	-1.118	19.178	C.2	1	LIG1	0.000	
11	 C35	13.380	-0.843	23.199	C.2	1	LIG1	0.000	
12	 C36	12.640	0.142	23.782	C.2	1	LIG1	0.000	
13	 C37	11.363	-2.107	22.696	C.2	1	LIG1	0.000	
14	 C38	3.229	1.153	21.052	C.2	1	LIG1	0.000	
15	 C39	3.896	0.676	22.164	C.2	1	LIG1	0.000	
16	 C40	12.744	-1.967	22.639	C.2	1	LIG1	0.000	
17	 C41	11.259	0.013	23.841	C.2	1	LIG1	0.000	
18	 C42	7.451	2.590	24.381	C.2	1	LIG1	0.000	
19	 C43	10.612	-1.153	23.372	C.2	1	LIG1	0.000	
20	 C44	5.445	-0.028	18.306	C.2	1	LIG1	0.000	
21	 C45	3.736	0.922	19.771	C.2	1	LIG1	0.000	
22	 C46	5.057	-0.009	22.017	C.2	1	LIG1	0.000	
23	 C47	6.813	-0.941	20.502	C.2	1	LIG1	0.000	
24	 C48	7.807	3.076	23.152	C.2	1	LIG1	0.000	
25	 C49	4.916	0.226	19.593	C.2	1	LIG1	0.000	
26	 C50	5.596	-0.233	20.733	C.2	1	LIG1	0.000	
27	 N51	7.575	-1.343	21.566	N.pl3	1	LIG1	0.000	
28	 N52	9.129	0.854	24.757	N.pl3	1	LIG1	0.000	
29	 N53	6.722	3.597	22.555	N.2	1	LIG1	0.000	
30	 C54	8.299	-4.920	26.103	C.3	1	LIG1	0.000	
31	 C55	8.343	1.892	25.407	C.3	1	LIG1	0.000	
32	 C56	8.849	-3.429	24.452	C.3	1	LIG1	0.000	
33	 C57	7.457	-2.599	22.279	C.3	1	LIG1	0.000	
34	 C58	8.542	-0.471	24.623	C.3	1	LIG1	0.000	
35	 C59	8.553	-2.622	23.270	C.3	1	LIG1	0.000	
36	 C60	9.118	-1.223	23.377	C.3	1	LIG1	0.000	
@<TRIPOS>BOND
1 4 20 ar
2 5 29 ar
3 6 32 1
4 2 7 2
5 7 17 1
6 3 8 2
7 8 36 1
8 5 9 ar
9 4 10 ar
10 11 16 ar
11 11 12 ar
12 13 19 ar
13 14 15 ar
14 15 22 ar
15 1 16 1
16 13 16 ar
17 12 17 ar
18 17 19 ar
19 9 18 ar
20 18 24 ar
21 20 25 ar
22 14 21 ar
23 22 26 ar
24 10 23 ar
25 23 26 ar
26 21 25 ar
27 25 26 ar
28 8 27 1
29 23 27 1
30 7 28 1
31 28 31 1
32 24 29 ar
33 6 30 1
34 18 31 1
35 32 35 1
36 27 33 1
37 28 34 1
38 33 35 1
39 35 36 1
40 19 36 1
41 34 36 1
@<TRIPOS>SUBSTRUCTURE
1	LIG1	1	GROUP	1 C	LIG
