# created with PyMOL 3.1.3.1
@<TRIPOS>MOLECULE
predicted
35 40 1                 
SMALL
USER_CHARGES
@<TRIPOS>ATOM
1	 O25	10.876	1.941	24.551	O.2	1	LIG1	0.000	
2	 O26	9.004	0.215	21.518	O.2	1	LIG1	0.000	
3	 N28	6.563	-0.800	18.029	N.2	1	LIG1	0.000	
4	 N29	6.171	2.062	23.742	N.2	1	LIG1	0.000	
5	 C30	10.379	0.829	24.343	C.2	1	LIG1	0.000	
6	 C31	8.563	-0.827	21.973	C.2	1	LIG1	0.000	
7	 C32	7.238	-1.255	19.069	C.2	1	LIG1	0.000	
8	 C33	5.763	2.892	22.746	C.2	1	LIG1	0.000	
9	 C34	13.335	-1.230	23.343	C.2	1	LIG1	0.000	
10	 C35	12.573	-0.184	23.798	C.2	1	LIG1	0.000	
11	 C36	11.333	-2.465	22.784	C.2	1	LIG1	0.000	
12	 C37	3.063	0.778	20.946	C.2	1	LIG1	0.000	
13	 C38	3.725	0.276	22.044	C.2	1	LIG1	0.000	
14	 C39	12.732	-2.359	22.841	C.2	1	LIG1	0.000	
15	 C40	11.189	-0.268	23.802	C.2	1	LIG1	0.000	
16	 C41	10.550	-1.438	23.328	C.2	1	LIG1	0.000	
17	 C42	5.380	-0.184	18.204	C.2	1	LIG1	0.000	
18	 C43	3.610	0.629	19.682	C.2	1	LIG1	0.000	
19	 C44	4.928	-0.355	21.886	C.2	1	LIG1	0.000	
20	 C45	6.764	-1.105	20.377	C.2	1	LIG1	0.000	
21	 C46	7.396	2.392	24.092	C.2	1	LIG1	0.000	
22	 C47	6.765	3.775	22.473	C.2	1	LIG1	0.000	
23	 C48	4.822	0.000	19.490	C.2	1	LIG1	0.000	
24	 C49	5.510	-0.483	20.611	C.2	1	LIG1	0.000	
25	 N50	7.527	-1.528	21.454	N.pl3	1	LIG1	0.000	
26	 N51	9.018	0.636	24.564	N.pl3	1	LIG1	0.000	
27	 N52	7.778	3.430	23.357	N.2	1	LIG1	0.000	
28	 C53	8.217	1.664	25.174	C.3	1	LIG1	0.000	
29	 C54	9.036	4.138	23.467	C.3	1	LIG1	0.000	
30	 C55	8.276	-3.668	24.336	C.3	1	LIG1	0.000	
31	 C56	7.335	-2.765	22.140	C.3	1	LIG1	0.000	
32	 C57	8.425	-0.702	24.440	C.3	1	LIG1	0.000	
33	 C58	8.472	-2.861	23.115	C.3	1	LIG1	0.000	
34	 C59	9.044	-1.479	23.257	C.3	1	LIG1	0.000	
35	 F27	13.504	-3.351	22.404	 F	1	LIG1	0.000	
@<TRIPOS>BOND
1 3 17 ar
2 4 8 ar
3 1 5 2
4 5 15 1
5 2 6 2
6 6 34 1
7 3 7 ar
8 8 22 ar
9 9 14 ar
10 9 10 ar
11 11 16 ar
12 12 13 ar
13 13 19 ar
14 11 14 ar
15 14 35 1
16 10 15 ar
17 15 16 ar
18 17 23 ar
19 12 18 ar
20 19 24 ar
21 7 20 ar
22 20 24 ar
23 4 21 ar
24 21 27 ar
25 22 27 ar
26 18 23 ar
27 23 24 ar
28 6 25 1
29 20 25 1
30 5 26 1
31 26 28 1
32 27 29 1
33 21 28 1
34 30 33 1
35 25 31 1
36 26 32 1
37 31 33 1
38 33 34 1
39 16 34 1
40 32 34 1
@<TRIPOS>SUBSTRUCTURE
1	LIG1	1	GROUP	1 C	LIG
