# created with PyMOL 3.1.3.1
@<TRIPOS>MOLECULE
predicted
34 38 1                 
SMALL
USER_CHARGES
@<TRIPOS>ATOM
1	CL29	13.594	-3.205	21.972	Cl	1	LIG1	0.000	
2	 O26	10.830	2.212	24.539	O.2	1	LIG1	0.000	
3	 O27	8.779	4.079	25.051	O.2	1	LIG1	0.000	
4	 O28	8.847	0.526	21.530	O.2	1	LIG1	0.000	
5	 N30	6.485	-0.748	17.959	N.2	1	LIG1	0.000	
6	 C31	10.321	1.106	24.336	C.2	1	LIG1	0.000	
7	 C32	8.187	3.231	24.463	C.2	1	LIG1	0.000	
8	 C33	8.451	-0.539	21.979	C.2	1	LIG1	0.000	
9	 C34	7.151	-1.157	19.012	C.2	1	LIG1	0.000	
10	 C35	13.253	-0.862	23.166	C.2	1	LIG1	0.000	
11	 C36	12.512	0.141	23.712	C.2	1	LIG1	0.000	
12	 C37	11.245	-2.093	22.607	C.2	1	LIG1	0.000	
13	 C38	3.198	1.279	20.818	C.2	1	LIG1	0.000	
14	 C39	3.878	0.856	21.943	C.2	1	LIG1	0.000	
15	 C40	12.628	-1.976	22.599	C.2	1	LIG1	0.000	
16	 C41	11.128	0.040	23.738	C.2	1	LIG1	0.000	
17	 C42	10.492	-1.113	23.249	C.2	1	LIG1	0.000	
18	 C43	5.343	-0.071	18.117	C.2	1	LIG1	0.000	
19	 C44	3.683	0.972	19.554	C.2	1	LIG1	0.000	
20	 C45	5.024	0.145	21.806	C.2	1	LIG1	0.000	
21	 C46	6.719	-0.900	20.330	C.2	1	LIG1	0.000	
22	 C47	4.839	0.252	19.388	C.2	1	LIG1	0.000	
23	 C48	5.527	-0.168	20.537	C.2	1	LIG1	0.000	
24	 N49	7.681	3.455	23.233	N.pl3	1	LIG1	0.000	
25	 N50	7.478	-1.290	21.418	N.pl3	1	LIG1	0.000	
26	 N51	8.938	0.904	24.532	N.pl3	1	LIG1	0.000	
27	 C52	8.030	1.879	25.043	C.3	1	LIG1	0.000	
28	 C53	6.375	5.042	22.035	C.3	1	LIG1	0.000	
29	 C54	7.710	4.790	22.637	C.3	1	LIG1	0.000	
30	 C55	8.440	-3.401	24.297	C.3	1	LIG1	0.000	
31	 C56	7.338	-2.539	22.086	C.3	1	LIG1	0.000	
32	 C57	8.389	-0.427	24.473	C.3	1	LIG1	0.000	
33	 C58	8.426	-2.561	23.113	C.3	1	LIG1	0.000	
34	 C59	8.982	-1.181	23.235	C.3	1	LIG1	0.000	
@<TRIPOS>BOND
1 5 18 ar
2 2 6 2
3 3 7 2
4 7 27 1
5 4 8 2
6 8 25 1
7 5 9 ar
8 10 11 ar
9 11 16 ar
10 12 15 ar
11 13 14 ar
12 14 20 ar
13 1 15 1
14 10 15 ar
15 6 16 1
16 12 17 ar
17 16 17 ar
18 18 22 ar
19 13 19 ar
20 20 23 ar
21 9 21 ar
22 21 23 ar
23 19 22 ar
24 22 23 ar
25 7 24 1
26 21 25 1
27 25 31 1
28 6 26 1
29 26 32 1
30 26 27 1
31 28 29 1
32 24 29 1
33 31 33 1
34 32 34 1
35 30 33 1
36 8 34 1
37 17 34 1
38 33 34 1
@<TRIPOS>SUBSTRUCTURE
1	LIG1	1	GROUP	1 C	LIG
