# created with PyMOL 3.1.3.1
@<TRIPOS>MOLECULE
predicted
40 45 1                 
SMALL
USER_CHARGES
@<TRIPOS>ATOM
1	CL30	13.637	-3.368	22.114	Cl	1	LIG1	0.000	
2	 O27	11.133	2.241	24.653	O.2	1	LIG1	0.000	
3	 O28	6.301	2.249	24.722	O.2	1	LIG1	0.000	
4	 O29	9.031	0.528	21.727	O.2	1	LIG1	0.000	
5	 N31	7.518	-6.122	28.509	N.2	1	LIG1	0.000	
6	 N32	8.444	-4.498	27.091	N.2	1	LIG1	0.000	
7	 N33	6.661	-0.761	18.170	N.2	1	LIG1	0.000	
8	 C34	10.598	1.120	24.499	C.2	1	LIG1	0.000	
9	 C35	7.422	2.512	24.457	C.2	1	LIG1	0.000	
10	 C36	8.641	-0.526	22.187	C.2	1	LIG1	0.000	
11	 C37	8.307	-5.056	28.278	C.2	1	LIG1	0.000	
12	 C38	6.945	-6.682	27.481	C.2	1	LIG1	0.000	
13	 C39	7.344	-1.173	19.241	C.2	1	LIG1	0.000	
14	 C40	7.887	-5.035	26.011	C.2	1	LIG1	0.000	
15	 C41	7.067	-6.145	26.164	C.2	1	LIG1	0.000	
16	 C42	13.419	-0.983	23.268	C.2	1	LIG1	0.000	
17	 C43	12.723	0.061	23.814	C.2	1	LIG1	0.000	
18	 C44	11.346	-2.168	22.834	C.2	1	LIG1	0.000	
19	 C45	3.325	1.201	21.054	C.2	1	LIG1	0.000	
20	 C46	3.996	0.764	22.187	C.2	1	LIG1	0.000	
21	 C47	12.735	-2.105	22.771	C.2	1	LIG1	0.000	
22	 C48	11.342	0.005	23.898	C.2	1	LIG1	0.000	
23	 C49	10.658	-1.150	23.463	C.2	1	LIG1	0.000	
24	 C50	5.513	-0.106	18.335	C.2	1	LIG1	0.000	
25	 C51	3.820	0.912	19.773	C.2	1	LIG1	0.000	
26	 C52	5.155	0.064	22.056	C.2	1	LIG1	0.000	
27	 C53	6.899	-0.937	20.558	C.2	1	LIG1	0.000	
28	 C54	4.995	0.204	19.614	C.2	1	LIG1	0.000	
29	 C55	5.676	-0.216	20.769	C.2	1	LIG1	0.000	
30	 N56	7.752	3.133	23.317	N.pl3	1	LIG1	0.000	
31	 N57	8.042	-4.474	24.795	N.pl3	1	LIG1	0.000	
32	 N58	7.663	-1.305	21.644	N.pl3	1	LIG1	0.000	
33	 N59	9.255	0.970	24.781	N.pl3	1	LIG1	0.000	
34	 C60	6.752	3.593	22.408	C.3	1	LIG1	0.000	
35	 C61	8.531	2.077	25.366	C.3	1	LIG1	0.000	
36	 C62	8.774	-3.269	24.597	C.3	1	LIG1	0.000	
37	 C63	7.536	-2.547	22.352	C.3	1	LIG1	0.000	
38	 C64	8.627	-0.329	24.709	C.3	1	LIG1	0.000	
39	 C65	8.540	-2.526	23.437	C.3	1	LIG1	0.000	
40	 C66	9.155	-1.161	23.482	C.3	1	LIG1	0.000	
@<TRIPOS>BOND
1 5 11 ar
2 7 24 ar
3 2 8 2
4 3 9 2
5 9 35 1
6 4 10 2
7 10 32 1
8 6 11 ar
9 5 12 ar
10 7 13 ar
11 6 14 ar
12 14 15 ar
13 12 15 ar
14 16 17 ar
15 17 22 ar
16 18 21 ar
17 19 20 ar
18 20 26 ar
19 1 21 1
20 16 21 ar
21 8 22 1
22 18 23 ar
23 22 23 ar
24 24 28 ar
25 19 25 ar
26 26 29 ar
27 13 27 ar
28 27 29 ar
29 25 28 ar
30 28 29 ar
31 9 30 1
32 14 31 1
33 27 32 1
34 32 37 1
35 8 33 1
36 33 38 1
37 30 34 1
38 33 35 1
39 31 36 1
40 37 39 1
41 38 40 1
42 36 39 1
43 10 40 1
44 23 40 1
45 39 40 1
@<TRIPOS>SUBSTRUCTURE
1	LIG1	1	GROUP	1 C	LIG
