# created with PyMOL 3.1.3.1
@<TRIPOS>MOLECULE
predicted
31 34 1                 
SMALL
USER_CHARGES
@<TRIPOS>ATOM
1	CL25	-13.677	-2.424	-21.219	Cl	1	LIG1	0.000	
2	 O24	-8.881	0.668	-21.080	O.2	1	LIG1	0.000	
3	 N26	-8.230	-1.571	-24.876	N.2	1	LIG1	0.000	
4	 N27	-6.741	-0.224	-17.554	N.2	1	LIG1	0.000	
5	 C28	-8.577	-0.383	-21.661	C.2	1	LIG1	0.000	
6	 C29	-8.065	-2.614	-25.696	C.2	1	LIG1	0.000	
7	 C30	-7.324	-0.828	-18.595	C.2	1	LIG1	0.000	
8	 C31	-8.913	-1.752	-23.723	C.2	1	LIG1	0.000	
9	 C32	-9.457	-2.972	-23.390	C.2	1	LIG1	0.000	
10	 C33	-13.527	0.110	-24.270	C.2	1	LIG1	0.000	
11	 C34	-13.989	-0.786	-23.303	C.2	1	LIG1	0.000	
12	 C35	-9.296	-4.049	-24.240	C.2	1	LIG1	0.000	
13	 C36	-12.209	0.493	-24.277	C.2	1	LIG1	0.000	
14	 C37	-11.780	-0.912	-22.405	C.2	1	LIG1	0.000	
15	 C38	-3.605	1.802	-20.489	C.2	1	LIG1	0.000	
16	 C39	-4.197	1.205	-21.568	C.2	1	LIG1	0.000	
17	 C40	-13.113	-1.302	-22.404	C.2	1	LIG1	0.000	
18	 C41	-8.600	-3.882	-25.426	C.2	1	LIG1	0.000	
19	 C42	-11.341	-0.010	-23.359	C.2	1	LIG1	0.000	
20	 C43	-5.687	0.519	-17.721	C.2	1	LIG1	0.000	
21	 C44	-4.085	1.592	-19.216	C.2	1	LIG1	0.000	
22	 C45	-5.281	0.378	-21.416	C.2	1	LIG1	0.000	
23	 C46	-6.888	-0.690	-19.886	C.2	1	LIG1	0.000	
24	 C47	-5.164	0.758	-19.009	C.2	1	LIG1	0.000	
25	 C48	-5.780	0.137	-20.126	C.2	1	LIG1	0.000	
26	 N49	-8.421	-4.935	-26.334	N.pl3	1	LIG1	0.000	
27	 N50	-9.048	-0.594	-22.901	N.pl3	1	LIG1	0.000	
28	 C51	-7.624	-1.361	-21.028	C.3	1	LIG1	0.000	
29	 C52	-7.161	-5.338	-26.726	C.3	1	LIG1	0.000	
30	 C53	-9.546	-5.752	-26.715	C.3	1	LIG1	0.000	
31	 C54	-9.920	0.427	-23.460	C.3	1	LIG1	0.000	
@<TRIPOS>BOND
1 3 6 ar
2 4 20 ar
3 2 5 2
4 5 28 1
5 4 7 ar
6 3 8 ar
7 8 27 1
8 8 9 ar
9 10 11 ar
10 11 17 ar
11 9 12 ar
12 10 13 ar
13 15 16 ar
14 16 22 ar
15 1 17 1
16 14 17 ar
17 6 18 ar
18 12 18 ar
19 13 19 ar
20 14 19 ar
21 20 24 ar
22 15 21 ar
23 22 25 ar
24 7 23 ar
25 23 25 ar
26 21 24 ar
27 24 25 ar
28 18 26 1
29 26 30 1
30 5 27 1
31 27 31 1
32 23 28 1
33 26 29 1
34 19 31 1
@<TRIPOS>SUBSTRUCTURE
1	LIG1	1	GROUP	1 C	LIG
