# created with PyMOL 3.1.3.1
@<TRIPOS>MOLECULE
predicted
31 35 1                 
SMALL
USER_CHARGES
@<TRIPOS>ATOM
1	CL25	-13.728	-2.095	-21.501	Cl	1	LIG1	0.000	
2	 O22	-8.958	-0.310	-21.381	O.2	1	LIG1	0.000	
3	 O23	-5.903	-2.379	-25.736	O.2	1	LIG1	0.000	
4	 O24	-7.205	-3.886	-26.977	O.2	1	LIG1	0.000	
5	 N26	-6.710	-0.277	-17.428	N.2	1	LIG1	0.000	
6	 C27	-8.361	-1.345	-21.530	C.2	1	LIG1	0.000	
7	 C28	-7.208	-0.969	-18.441	C.2	1	LIG1	0.000	
8	 C29	-12.733	-2.942	-23.824	C.2	1	LIG1	0.000	
9	 C30	-11.695	-3.243	-24.672	C.2	1	LIG1	0.000	
10	 C31	-11.177	-2.271	-22.158	C.2	1	LIG1	0.000	
11	 C32	-3.571	1.718	-20.393	C.2	1	LIG1	0.000	
12	 C33	-4.104	1.011	-21.461	C.2	1	LIG1	0.000	
13	 C34	-12.450	-2.454	-22.563	C.2	1	LIG1	0.000	
14	 C35	-10.375	-3.041	-24.258	C.2	1	LIG1	0.000	
15	 C36	-10.106	-2.517	-22.996	C.2	1	LIG1	0.000	
16	 C37	-5.681	0.526	-17.608	C.2	1	LIG1	0.000	
17	 C38	-4.080	1.584	-19.126	C.2	1	LIG1	0.000	
18	 C39	-5.144	0.149	-21.289	C.2	1	LIG1	0.000	
19	 C40	-6.761	-0.877	-19.742	C.2	1	LIG1	0.000	
20	 C41	-5.133	0.708	-18.894	C.2	1	LIG1	0.000	
21	 C42	-5.674	-0.017	-19.982	C.2	1	LIG1	0.000	
22	 N43	-7.294	-1.702	-20.785	N.pl3	1	LIG1	0.000	
23	 N44	-5.971	-4.806	-25.066	N.3	1	LIG1	0.000	
24	 N45	-8.009	-3.122	-24.719	N.3	1	LIG1	0.000	
25	 C46	-9.319	-3.375	-25.214	C.3	1	LIG1	0.000	
26	 C47	-6.605	-6.038	-24.725	C.3	1	LIG1	0.000	
27	 C48	-5.002	-4.732	-24.021	C.3	1	LIG1	0.000	
28	 C49	-5.366	-6.344	-23.677	C.3	1	LIG1	0.000	
29	 C50	-7.820	-2.201	-23.734	C.3	1	LIG1	0.000	
30	 C51	-8.717	-2.371	-22.544	C.3	1	LIG1	0.000	
31	 S52	-6.759	-3.511	-25.690	S.O2	1	LIG1	0.000	
@<TRIPOS>BOND
1 2 6 2
2 5 16 ar
3 6 22 1
4 6 30 1
5 5 7 ar
6 8 13 ar
7 8 9 ar
8 10 15 ar
9 11 12 ar
10 12 18 ar
11 1 13 1
12 10 13 ar
13 9 14 ar
14 14 15 ar
15 16 20 ar
16 11 17 ar
17 18 21 ar
18 7 19 ar
19 19 21 ar
20 17 20 ar
21 20 21 ar
22 19 22 1
23 23 26 1
24 23 27 1
25 24 25 1
26 24 31 1
27 14 25 1
28 26 28 1
29 27 28 1
30 24 29 1
31 15 30 1
32 29 30 1
33 3 31 2
34 4 31 2
35 23 31 1
@<TRIPOS>SUBSTRUCTURE
1	LIG1	1	GROUP	1 C	LIG
