# created with PyMOL 3.1.3.1
@<TRIPOS>MOLECULE
predicted
33 37 1                 
SMALL
USER_CHARGES
@<TRIPOS>ATOM
1	CL31	13.735	-3.459	22.332	Cl	1	LIG1	0.000	
2	 O29	10.674	2.156	24.186	O.2	1	LIG1	0.000	
3	 O30	8.906	0.249	21.284	O.2	1	LIG1	0.000	
4	 N32	6.492	-0.893	17.819	N.2	1	LIG1	0.000	
5	 C33	10.221	1.014	24.055	C.2	1	LIG1	0.000	
6	 C34	8.491	-0.788	21.784	C.2	1	LIG1	0.000	
7	 C35	7.169	-1.328	18.874	C.2	1	LIG1	0.000	
8	 C36	13.238	-1.005	23.242	C.2	1	LIG1	0.000	
9	 C37	12.452	0.034	23.625	C.2	1	LIG1	0.000	
10	 C38	11.278	-2.312	22.702	C.2	1	LIG1	0.000	
11	 C39	3.156	0.979	20.708	C.2	1	LIG1	0.000	
12	 C40	3.827	0.526	21.824	C.2	1	LIG1	0.000	
13	 C41	12.657	-2.161	22.774	C.2	1	LIG1	0.000	
14	 C42	11.074	-0.093	23.604	C.2	1	LIG1	0.000	
15	 C43	10.464	-1.294	23.190	C.2	1	LIG1	0.000	
16	 C44	5.345	-0.244	17.991	C.2	1	LIG1	0.000	
17	 C45	3.652	0.720	19.439	C.2	1	LIG1	0.000	
18	 C46	4.978	-0.169	21.682	C.2	1	LIG1	0.000	
19	 C47	6.717	-1.132	20.183	C.2	1	LIG1	0.000	
20	 C48	4.825	0.026	19.269	C.2	1	LIG1	0.000	
21	 C49	5.508	-0.421	20.403	C.2	1	LIG1	0.000	
22	 N50	7.481	-1.522	21.277	N.pl3	1	LIG1	0.000	
23	 N51	8.850	0.808	24.224	N.pl3	1	LIG1	0.000	
24	 C52	8.010	1.876	24.619	C.3	1	LIG1	0.000	
25	 C53	8.177	-3.504	24.258	C.3	1	LIG1	0.000	
26	 C54	7.300	-2.726	22.001	C.3	1	LIG1	0.000	
27	 C55	8.325	-0.545	24.236	C.3	1	LIG1	0.000	
28	 C56	6.621	4.501	22.338	C.3	1	LIG1	0.000	
29	 C57	5.605	3.504	24.283	C.3	1	LIG1	0.000	
30	 C58	7.576	2.595	23.333	C.3	1	LIG1	0.000	
31	 C59	8.423	-2.750	23.014	C.3	1	LIG1	0.000	
32	 C60	8.972	-1.369	23.101	C.3	1	LIG1	0.000	
33	 N61	6.823	3.773	23.562	N.3	1	LIG1	0.000	
@<TRIPOS>BOND
1 4 16 ar
2 2 5 2
3 5 14 1
4 3 6 2
5 6 32 1
6 4 7 ar
7 8 13 ar
8 8 9 ar
9 10 15 ar
10 11 12 ar
11 12 18 ar
12 1 13 1
13 10 13 ar
14 9 14 ar
15 14 15 ar
16 16 20 ar
17 11 17 ar
18 18 21 ar
19 7 19 ar
20 19 21 ar
21 17 20 ar
22 20 21 ar
23 6 22 1
24 19 22 1
25 5 23 1
26 23 24 1
27 24 30 1
28 25 31 1
29 22 26 1
30 23 27 1
31 30 33 1
32 26 31 1
33 31 32 1
34 15 32 1
35 27 32 1
36 28 33 1
37 29 33 1
@<TRIPOS>SUBSTRUCTURE
1	LIG1	1	GROUP	1 C	LIG
