# created with PyMOL 3.1.3.1
@<TRIPOS>MOLECULE
predicted
34 39 1                 
SMALL
USER_CHARGES
@<TRIPOS>ATOM
1	 O22	11.281	2.023	24.439	O.2	1	LIG1	0.000	
2	 O23	9.154	0.281	21.604	O.2	1	LIG1	0.000	
3	 N25	7.927	2.528	22.884	N.2	1	LIG1	0.000	
4	 N26	6.653	-0.766	18.172	N.2	1	LIG1	0.000	
5	 O27	6.028	3.411	23.354	O.2	1	LIG1	0.000	
6	 C28	10.769	0.899	24.288	C.2	1	LIG1	0.000	
7	 C29	8.769	-0.771	22.078	C.2	1	LIG1	0.000	
8	 C30	6.847	3.121	22.394	C.2	1	LIG1	0.000	
9	 C31	7.357	-1.216	19.189	C.2	1	LIG1	0.000	
10	 C32	7.821	2.449	24.187	C.2	1	LIG1	0.000	
11	 C33	6.600	3.051	24.521	C.2	1	LIG1	0.000	
12	 C34	13.616	-1.147	23.051	C.2	1	LIG1	0.000	
13	 C35	12.905	-0.112	23.583	C.2	1	LIG1	0.000	
14	 C36	11.579	-2.402	22.659	C.2	1	LIG1	0.000	
15	 C37	3.291	0.891	21.220	C.2	1	LIG1	0.000	
16	 C38	3.986	0.400	22.294	C.2	1	LIG1	0.000	
17	 C39	12.968	-2.295	22.588	C.2	1	LIG1	0.000	
18	 C40	11.522	-0.205	23.688	C.2	1	LIG1	0.000	
19	 C41	10.842	-1.380	23.279	C.2	1	LIG1	0.000	
20	 C42	5.480	-0.148	18.378	C.2	1	LIG1	0.000	
21	 C43	3.780	0.715	19.922	C.2	1	LIG1	0.000	
22	 C44	5.169	-0.250	22.092	C.2	1	LIG1	0.000	
23	 C45	6.933	-1.078	20.518	C.2	1	LIG1	0.000	
24	 C46	4.981	0.061	19.692	C.2	1	LIG1	0.000	
25	 C47	5.700	-0.421	20.797	C.2	1	LIG1	0.000	
26	 N48	7.736	-1.488	21.570	N.pl3	1	LIG1	0.000	
27	 N49	9.423	0.708	24.606	N.pl3	1	LIG1	0.000	
28	 C50	8.664	1.768	25.228	C.3	1	LIG1	0.000	
29	 C51	8.743	-3.623	24.427	C.3	1	LIG1	0.000	
30	 C52	7.606	-2.752	22.254	C.3	1	LIG1	0.000	
31	 C53	8.821	-0.633	24.558	C.3	1	LIG1	0.000	
32	 C54	8.753	-2.800	23.227	C.3	1	LIG1	0.000	
33	 C55	9.342	-1.420	23.326	C.3	1	LIG1	0.000	
34	 F24	13.692	-3.288	22.076	 F	1	LIG1	0.000	
@<TRIPOS>BOND
1 4 20 ar
2 5 8 ar
3 1 6 2
4 6 18 1
5 2 7 2
6 7 33 1
7 3 8 ar
8 4 9 ar
9 3 10 ar
10 10 11 ar
11 5 11 ar
12 12 17 ar
13 12 13 ar
14 14 19 ar
15 15 16 ar
16 16 22 ar
17 14 17 ar
18 17 34 1
19 13 18 ar
20 18 19 ar
21 20 24 ar
22 15 21 ar
23 22 25 ar
24 9 23 ar
25 23 25 ar
26 21 24 ar
27 24 25 ar
28 7 26 1
29 23 26 1
30 6 27 1
31 27 28 1
32 10 28 1
33 29 32 1
34 26 30 1
35 27 31 1
36 30 32 1
37 32 33 1
38 19 33 1
39 31 33 1
@<TRIPOS>SUBSTRUCTURE
1	LIG1	1	GROUP	1 C	LIG
