# created with PyMOL 3.1.3.1
@<TRIPOS>MOLECULE
predicted
40 45 1                 
SMALL
USER_CHARGES
@<TRIPOS>ATOM
1	CL30	13.522	-3.307	22.650	Cl	1	LIG1	0.000	
2	 O27	10.315	2.393	23.725	O.2	1	LIG1	0.000	
3	 O28	7.996	3.840	24.857	O.2	1	LIG1	0.000	
4	 O29	8.714	0.379	21.131	O.2	1	LIG1	0.000	
5	 N31	4.296	-6.553	23.343	N.2	1	LIG1	0.000	
6	 N32	5.498	-4.709	24.111	N.2	1	LIG1	0.000	
7	 N33	6.311	-0.887	17.696	N.2	1	LIG1	0.000	
8	 C34	9.872	1.258	23.725	C.2	1	LIG1	0.000	
9	 C35	7.728	3.341	23.799	C.2	1	LIG1	0.000	
10	 C36	8.300	-0.640	21.649	C.2	1	LIG1	0.000	
11	 C37	4.364	-5.315	23.876	C.2	1	LIG1	0.000	
12	 C38	5.443	-7.239	23.106	C.2	1	LIG1	0.000	
13	 C39	7.002	-1.287	18.764	C.2	1	LIG1	0.000	
14	 C40	6.687	-5.328	23.854	C.2	1	LIG1	0.000	
15	 C41	6.685	-6.645	23.359	C.2	1	LIG1	0.000	
16	 C42	12.986	-0.803	23.298	C.2	1	LIG1	0.000	
17	 C43	12.160	0.271	23.545	C.2	1	LIG1	0.000	
18	 C44	11.061	-2.166	22.805	C.2	1	LIG1	0.000	
19	 C45	2.976	1.101	20.558	C.2	1	LIG1	0.000	
20	 C46	3.665	0.691	21.695	C.2	1	LIG1	0.000	
21	 C47	12.450	-2.017	22.933	C.2	1	LIG1	0.000	
22	 C48	10.784	0.142	23.473	C.2	1	LIG1	0.000	
23	 C49	10.229	-1.091	23.139	C.2	1	LIG1	0.000	
24	 C50	5.160	-0.239	17.860	C.2	1	LIG1	0.000	
25	 C51	3.470	0.798	19.286	C.2	1	LIG1	0.000	
26	 C52	4.821	-0.022	21.562	C.2	1	LIG1	0.000	
27	 C53	6.546	-1.042	20.069	C.2	1	LIG1	0.000	
28	 C54	4.639	0.088	19.131	C.2	1	LIG1	0.000	
29	 C55	5.332	-0.314	20.281	C.2	1	LIG1	0.000	
30	 N56	7.752	3.960	22.603	N.pl3	1	LIG1	0.000	
31	 N57	7.888	-4.732	24.078	N.pl3	1	LIG1	0.000	
32	 N58	7.301	-1.401	21.156	N.pl3	1	LIG1	0.000	
33	 N59	8.463	1.024	23.834	N.pl3	1	LIG1	0.000	
34	 C60	8.019	5.321	22.495	C.3	1	LIG1	0.000	
35	 C61	7.409	1.940	23.716	C.3	1	LIG1	0.000	
36	 C62	8.065	-3.270	24.239	C.3	1	LIG1	0.000	
37	 C63	7.151	-2.603	21.904	C.3	1	LIG1	0.000	
38	 C64	8.022	-0.296	24.059	C.3	1	LIG1	0.000	
39	 C65	8.202	-2.584	22.969	C.3	1	LIG1	0.000	
40	 C66	8.717	-1.193	22.983	C.3	1	LIG1	0.000	
@<TRIPOS>BOND
1 5 11 ar
2 7 24 ar
3 2 8 2
4 3 9 2
5 9 35 1
6 4 10 2
7 10 32 1
8 6 11 ar
9 5 12 ar
10 7 13 ar
11 6 14 ar
12 14 15 ar
13 12 15 ar
14 16 17 ar
15 17 22 ar
16 18 21 ar
17 19 20 ar
18 20 26 ar
19 1 21 1
20 16 21 ar
21 8 22 1
22 18 23 ar
23 22 23 ar
24 24 28 ar
25 19 25 ar
26 26 29 ar
27 13 27 ar
28 27 29 ar
29 25 28 ar
30 28 29 ar
31 9 30 1
32 14 31 1
33 27 32 1
34 32 37 1
35 8 33 1
36 33 38 1
37 30 34 1
38 33 35 1
39 31 36 1
40 37 39 1
41 38 40 1
42 36 39 1
43 10 40 1
44 23 40 1
45 39 40 1
@<TRIPOS>SUBSTRUCTURE
1	LIG1	1	GROUP	1 C	LIG
