# created with PyMOL 3.1.3.1
@<TRIPOS>MOLECULE
predicted
40 45 1                 
SMALL
USER_CHARGES
@<TRIPOS>ATOM
1	CL30	13.494	-3.306	21.980	Cl	1	LIG1	0.000	
2	 O27	10.880	2.203	24.615	O.2	1	LIG1	0.000	
3	 O28	6.478	3.334	24.725	O.2	1	LIG1	0.000	
4	 O29	8.859	0.558	21.583	O.2	1	LIG1	0.000	
5	 N31	7.421	-6.054	27.954	N.2	1	LIG1	0.000	
6	 N32	9.050	-5.837	25.767	N.2	1	LIG1	0.000	
7	 N33	6.482	-0.710	17.979	N.2	1	LIG1	0.000	
8	 C34	10.355	1.087	24.420	C.2	1	LIG1	0.000	
9	 C35	7.412	2.790	24.318	C.2	1	LIG1	0.000	
10	 C36	8.448	-0.499	22.025	C.2	1	LIG1	0.000	
11	 C37	8.489	-6.850	27.820	C.2	1	LIG1	0.000	
12	 C38	9.319	-6.717	26.699	C.2	1	LIG1	0.000	
13	 C39	7.164	-5.120	27.026	C.2	1	LIG1	0.000	
14	 C40	7.157	-1.132	19.048	C.2	1	LIG1	0.000	
15	 C41	8.017	-4.981	25.917	C.2	1	LIG1	0.000	
16	 C42	13.217	-0.957	23.200	C.2	1	LIG1	0.000	
17	 C43	12.493	0.063	23.759	C.2	1	LIG1	0.000	
18	 C44	11.178	-2.139	22.683	C.2	1	LIG1	0.000	
19	 C45	3.124	1.229	20.852	C.2	1	LIG1	0.000	
20	 C46	3.793	0.786	21.985	C.2	1	LIG1	0.000	
21	 C47	12.561	-2.065	22.654	C.2	1	LIG1	0.000	
22	 C48	11.122	-0.005	23.815	C.2	1	LIG1	0.000	
23	 C49	10.452	-1.140	23.322	C.2	1	LIG1	0.000	
24	 C50	5.328	-0.052	18.144	C.2	1	LIG1	0.000	
25	 C51	3.626	0.957	19.572	C.2	1	LIG1	0.000	
26	 C52	4.960	0.090	21.856	C.2	1	LIG1	0.000	
27	 C53	6.709	-0.894	20.366	C.2	1	LIG1	0.000	
28	 C54	4.798	0.248	19.418	C.2	1	LIG1	0.000	
29	 C55	5.482	-0.185	20.575	C.2	1	LIG1	0.000	
30	 N56	7.649	2.938	23.039	N.pl3	1	LIG1	0.000	
31	 N57	7.753	-4.010	25.040	N.pl3	1	LIG1	0.000	
32	 N58	7.468	-1.278	21.452	N.pl3	1	LIG1	0.000	
33	 N59	9.011	0.921	24.649	N.pl3	1	LIG1	0.000	
34	 C60	6.784	3.724	22.187	C.3	1	LIG1	0.000	
35	 C61	8.264	1.972	25.255	C.3	1	LIG1	0.000	
36	 C62	8.721	-3.455	24.171	C.3	1	LIG1	0.000	
37	 C63	7.343	-2.547	22.121	C.3	1	LIG1	0.000	
38	 C64	8.394	-0.380	24.524	C.3	1	LIG1	0.000	
39	 C65	8.332	-2.537	23.205	C.3	1	LIG1	0.000	
40	 C66	8.942	-1.155	23.298	C.3	1	LIG1	0.000	
@<TRIPOS>BOND
1 5 11 ar
2 7 24 ar
3 2 8 2
4 3 9 2
5 9 35 1
6 4 10 2
7 10 32 1
8 11 12 ar
9 6 12 ar
10 5 13 ar
11 7 14 ar
12 6 15 ar
13 13 15 ar
14 16 17 ar
15 17 22 ar
16 18 21 ar
17 19 20 ar
18 20 26 ar
19 1 21 1
20 16 21 ar
21 8 22 1
22 18 23 ar
23 22 23 ar
24 24 28 ar
25 19 25 ar
26 26 29 ar
27 14 27 ar
28 27 29 ar
29 25 28 ar
30 28 29 ar
31 9 30 1
32 15 31 1
33 27 32 1
34 32 37 1
35 8 33 1
36 33 38 1
37 30 34 1
38 33 35 1
39 31 36 1
40 37 39 1
41 38 40 1
42 36 39 1
43 10 40 1
44 23 40 1
45 39 40 1
@<TRIPOS>SUBSTRUCTURE
1	LIG1	1	GROUP	1 C	LIG
