# created with PyMOL 3.1.3.1
@<TRIPOS>MOLECULE
predicted
24 26 1                 
SMALL
USER_CHARGES
@<TRIPOS>ATOM
1	CL16	13.920	-1.938	21.710	Cl	1	LIG1	0.000	
2	 O13	2.408	2.252	23.399	O.co2	1	LIG1	0.000	
3	 O14	9.076	1.059	21.136	O.2	1	LIG1	0.000	
4	 O15	3.939	0.953	24.113	O.co2	1	LIG1	0.000	
5	 N17	6.709	0.377	17.748	N.2	1	LIG1	0.000	
6	 C18	3.416	1.552	23.161	C.2	1	LIG1	0.000	
7	 C19	8.616	0.100	21.687	C.2	1	LIG1	0.000	
8	 C20	7.342	-0.137	18.802	C.2	1	LIG1	0.000	
9	 C21	12.413	1.112	23.797	C.2	1	LIG1	0.000	
10	 C22	13.298	0.251	23.160	C.2	1	LIG1	0.000	
11	 C23	11.070	0.837	23.731	C.2	1	LIG1	0.000	
12	 C24	11.504	-1.148	22.413	C.2	1	LIG1	0.000	
13	 C25	3.336	1.990	20.720	C.2	1	LIG1	0.000	
14	 C26	12.833	-0.870	22.490	C.2	1	LIG1	0.000	
15	 C27	3.967	1.451	21.794	C.2	1	LIG1	0.000	
16	 C28	10.651	-0.291	23.028	C.2	1	LIG1	0.000	
17	 C29	5.574	1.020	17.933	C.2	1	LIG1	0.000	
18	 C30	3.848	1.883	19.419	C.2	1	LIG1	0.000	
19	 C31	5.135	0.783	21.600	C.2	1	LIG1	0.000	
20	 C32	6.876	-0.038	20.077	C.2	1	LIG1	0.000	
21	 C33	5.012	1.203	19.207	C.2	1	LIG1	0.000	
22	 C34	5.658	0.655	20.319	C.2	1	LIG1	0.000	
23	 N35	7.554	-0.562	21.210	N.pl3	1	LIG1	0.000	
24	 C36	9.197	-0.536	22.954	C.3	1	LIG1	0.000	
@<TRIPOS>BOND
1 3 7 2
2 5 17 ar
3 2 6 ar
4 4 6 ar
5 7 23 1
6 7 24 1
7 5 8 ar
8 9 10 ar
9 10 14 ar
10 9 11 ar
11 13 15 ar
12 1 14 1
13 12 14 ar
14 6 15 1
15 15 19 ar
16 11 16 ar
17 12 16 ar
18 17 21 ar
19 13 18 ar
20 19 22 ar
21 8 20 ar
22 20 22 ar
23 18 21 ar
24 21 22 ar
25 20 23 1
26 16 24 1
@<TRIPOS>SUBSTRUCTURE
1	LIG1	1	GROUP	1 C	LIG
