# created with PyMOL 3.1.3.1
@<TRIPOS>MOLECULE
predicted
25 28 1                 
SMALL
USER_CHARGES
@<TRIPOS>ATOM
1	CL17	-14.175	-2.629	-21.107	Cl	1	LIG1	0.000	
2	 O16	-9.757	0.922	-21.083	O.2	1	LIG1	0.000	
3	 N18	-7.252	0.164	-17.692	N.2	1	LIG1	0.000	
4	 O19	-11.463	1.314	-24.420	O.3	1	LIG1	0.000	
5	 O20	-9.439	-1.918	-23.197	O.3	1	LIG1	0.000	
6	 C21	-9.264	-0.047	-21.657	C.2	1	LIG1	0.000	
7	 C22	-7.892	-0.319	-18.753	C.2	1	LIG1	0.000	
8	 C23	-14.069	-0.440	-22.720	C.2	1	LIG1	0.000	
9	 C24	-13.418	0.483	-23.479	C.2	1	LIG1	0.000	
10	 C25	-11.995	-1.506	-22.098	C.2	1	LIG1	0.000	
11	 C26	-3.942	1.987	-20.553	C.2	1	LIG1	0.000	
12	 C27	-4.597	1.516	-21.658	C.2	1	LIG1	0.000	
13	 C28	-13.357	-1.456	-22.039	C.2	1	LIG1	0.000	
14	 C29	-12.061	0.430	-23.567	C.2	1	LIG1	0.000	
15	 C30	-11.329	-0.594	-22.887	C.2	1	LIG1	0.000	
16	 C31	-6.117	0.830	-17.824	C.2	1	LIG1	0.000	
17	 C32	-4.424	1.781	-19.279	C.2	1	LIG1	0.000	
18	 C33	-5.749	0.830	-21.538	C.2	1	LIG1	0.000	
19	 C34	-7.441	-0.126	-20.054	C.2	1	LIG1	0.000	
20	 C35	-5.582	1.072	-19.112	C.2	1	LIG1	0.000	
21	 C36	-6.256	0.588	-20.247	C.2	1	LIG1	0.000	
22	 N37	-8.150	-0.608	-21.196	N.pl3	1	LIG1	0.000	
23	 C38	-10.044	1.464	-24.382	C.3	1	LIG1	0.000	
24	 C39	-9.315	0.216	-24.130	C.3	1	LIG1	0.000	
25	 C40	-9.846	-0.614	-22.946	C.3	1	LIG1	0.000	
@<TRIPOS>BOND
1 2 6 2
2 3 16 ar
3 4 14 1
4 6 22 1
5 6 25 1
6 3 7 ar
7 8 13 ar
8 8 9 ar
9 10 15 ar
10 11 12 ar
11 12 18 ar
12 1 13 1
13 10 13 ar
14 9 14 ar
15 14 15 ar
16 16 20 ar
17 11 17 ar
18 18 21 ar
19 7 19 ar
20 19 21 ar
21 17 20 ar
22 20 21 ar
23 19 22 1
24 4 23 1
25 23 24 1
26 5 25 1
27 15 25 1
28 24 25 1
@<TRIPOS>SUBSTRUCTURE
1	LIG1	1	GROUP	1 C	LIG
