# created with PyMOL 3.1.3.1
@<TRIPOS>MOLECULE
predicted
36 41 1                 
SMALL
USER_CHARGES
@<TRIPOS>ATOM
1	CL30	13.900	-2.266	21.635	Cl	1	LIG1	0.000	
2	 N26	4.834	4.874	22.888	N.1	1	LIG1	0.000	
3	 O27	9.143	1.279	21.364	O.2	1	LIG1	0.000	
4	 O28	6.871	2.213	24.943	O.2	1	LIG1	0.000	
5	 O29	8.608	3.620	25.790	O.2	1	LIG1	0.000	
6	 C31	5.922	4.774	23.150	C.1	1	LIG1	0.000	
7	 N32	6.741	0.135	17.837	N.2	1	LIG1	0.000	
8	 C33	8.767	0.210	21.819	C.2	1	LIG1	0.000	
9	 C34	7.426	-0.294	18.876	C.2	1	LIG1	0.000	
10	 C35	13.542	-0.066	23.081	C.2	1	LIG1	0.000	
11	 C36	12.796	0.858	23.739	C.2	1	LIG1	0.000	
12	 C37	11.566	-1.224	22.398	C.2	1	LIG1	0.000	
13	 C38	3.446	1.941	20.810	C.2	1	LIG1	0.000	
14	 C39	4.143	1.470	21.890	C.2	1	LIG1	0.000	
15	 C40	12.928	-1.103	22.409	C.2	1	LIG1	0.000	
16	 C41	11.419	0.748	23.740	C.2	1	LIG1	0.000	
17	 C42	10.788	-0.334	23.114	C.2	1	LIG1	0.000	
18	 C43	5.593	0.770	18.027	C.2	1	LIG1	0.000	
19	 C44	3.921	1.721	19.532	C.2	1	LIG1	0.000	
20	 C45	5.289	0.799	21.710	C.2	1	LIG1	0.000	
21	 C46	7.012	-0.126	20.200	C.2	1	LIG1	0.000	
22	 C47	5.092	1.031	19.315	C.2	1	LIG1	0.000	
23	 C48	5.804	0.568	20.437	C.2	1	LIG1	0.000	
24	 N49	7.785	-0.540	21.278	N.pl3	1	LIG1	0.000	
25	 N50	9.192	1.663	24.296	N.3	1	LIG1	0.000	
26	 C51	10.647	1.769	24.520	C.3	1	LIG1	0.000	
27	 C52	7.893	6.236	23.738	C.3	1	LIG1	0.000	
28	 C53	7.824	6.058	22.228	C.3	1	LIG1	0.000	
29	 C54	7.373	5.064	23.140	C.3	1	LIG1	0.000	
30	 C55	8.776	-2.652	24.160	C.3	1	LIG1	0.000	
31	 C56	7.686	-1.812	21.969	C.3	1	LIG1	0.000	
32	 C57	8.717	0.328	24.276	C.3	1	LIG1	0.000	
33	 C58	8.125	3.798	23.185	C.3	1	LIG1	0.000	
34	 C59	8.768	-1.841	22.951	C.3	1	LIG1	0.000	
35	 C60	9.308	-0.424	23.088	C.3	1	LIG1	0.000	
36	 S61	8.146	2.840	24.686	S.O2	1	LIG1	0.000	
@<TRIPOS>BOND
1 2 6 3
2 7 18 ar
3 3 8 2
4 8 35 1
5 7 9 ar
6 10 15 ar
7 10 11 ar
8 12 17 ar
9 13 14 ar
10 14 20 ar
11 1 15 1
12 12 15 ar
13 11 16 ar
14 16 17 ar
15 18 22 ar
16 13 19 ar
17 20 23 ar
18 9 21 ar
19 21 23 ar
20 19 22 ar
21 22 23 ar
22 8 24 1
23 21 24 1
24 25 26 1
25 25 36 1
26 16 26 1
27 27 28 1
28 6 29 1
29 27 29 1
30 28 29 1
31 30 34 1
32 24 31 1
33 25 32 1
34 29 33 1
35 31 34 1
36 34 35 1
37 17 35 1
38 32 35 1
39 4 36 2
40 5 36 2
41 33 36 1
@<TRIPOS>SUBSTRUCTURE
1	LIG1	1	GROUP	1 C	LIG
