# created with PyMOL 3.1.3.1
@<TRIPOS>MOLECULE
predicted
36 41 1                 
SMALL
USER_CHARGES
@<TRIPOS>ATOM
1	 O27	11.159	1.991	24.611	O.2	1	LIG1	0.000	
2	 O28	9.142	0.311	21.560	O.2	1	LIG1	0.000	
3	 N30	6.650	-0.725	18.073	N.2	1	LIG1	0.000	
4	 N31	5.785	3.213	23.565	N.2	1	LIG1	0.000	
5	 C32	10.672	0.864	24.379	C.2	1	LIG1	0.000	
6	 C33	8.744	-0.748	22.014	C.2	1	LIG1	0.000	
7	 C34	6.685	3.300	22.643	C.2	1	LIG1	0.000	
8	 C35	7.350	-1.186	19.092	C.2	1	LIG1	0.000	
9	 C36	13.584	-1.052	23.028	C.2	1	LIG1	0.000	
10	 C37	12.847	-0.062	23.620	C.2	1	LIG1	0.000	
11	 C38	11.572	-2.320	22.548	C.2	1	LIG1	0.000	
12	 C39	3.310	0.956	21.128	C.2	1	LIG1	0.000	
13	 C40	4.010	0.463	22.215	C.2	1	LIG1	0.000	
14	 C41	7.876	2.733	23.126	C.2	1	LIG1	0.000	
15	 C42	12.957	-2.187	22.482	C.2	1	LIG1	0.000	
16	 C43	11.460	-0.183	23.711	C.2	1	LIG1	0.000	
17	 C44	10.818	-1.351	23.220	C.2	1	LIG1	0.000	
18	 C45	5.484	-0.092	18.293	C.2	1	LIG1	0.000	
19	 C46	3.793	0.776	19.832	C.2	1	LIG1	0.000	
20	 C47	5.187	-0.188	22.015	C.2	1	LIG1	0.000	
21	 C48	6.930	-1.039	20.428	C.2	1	LIG1	0.000	
22	 C49	7.608	2.316	24.423	C.2	1	LIG1	0.000	
23	 C50	4.984	0.115	19.601	C.2	1	LIG1	0.000	
24	 C51	5.695	-0.368	20.701	C.2	1	LIG1	0.000	
25	 N52	7.720	-1.476	21.480	N.pl3	1	LIG1	0.000	
26	 N53	9.342	0.622	24.690	N.pl3	1	LIG1	0.000	
27	 N54	6.355	2.629	24.653	N.2	1	LIG1	0.000	
28	 C55	8.568	1.630	25.369	C.3	1	LIG1	0.000	
29	 C56	5.280	3.648	26.546	C.3	1	LIG1	0.000	
30	 C57	5.561	2.353	25.848	C.3	1	LIG1	0.000	
31	 C58	8.740	-3.664	24.290	C.3	1	LIG1	0.000	
32	 C59	7.594	-2.736	22.128	C.3	1	LIG1	0.000	
33	 C60	8.767	-0.689	24.513	C.3	1	LIG1	0.000	
34	 C61	8.743	-2.814	23.087	C.3	1	LIG1	0.000	
35	 C62	9.307	-1.422	23.243	C.3	1	LIG1	0.000	
36	 F29	13.706	-3.125	21.917	 F	1	LIG1	0.000	
@<TRIPOS>BOND
1 3 18 ar
2 4 7 ar
3 1 5 2
4 2 6 2
5 6 25 1
6 7 14 ar
7 3 8 ar
8 9 10 ar
9 10 16 ar
10 11 15 ar
11 12 13 ar
12 13 20 ar
13 14 22 ar
14 9 15 ar
15 15 36 1
16 5 16 1
17 11 17 ar
18 16 17 ar
19 18 23 ar
20 12 19 ar
21 20 24 ar
22 8 21 ar
23 21 24 ar
24 22 28 1
25 19 23 ar
26 23 24 ar
27 21 25 1
28 25 32 1
29 5 26 1
30 26 33 1
31 4 27 ar
32 22 27 ar
33 26 28 1
34 29 30 1
35 27 30 1
36 32 34 1
37 33 35 1
38 31 34 1
39 6 35 1
40 17 35 1
41 34 35 1
@<TRIPOS>SUBSTRUCTURE
1	LIG1	1	GROUP	1 C	LIG
