# created with PyMOL 3.1.3.1
@<TRIPOS>MOLECULE
predicted
27 31 1                 
SMALL
USER_CHARGES
@<TRIPOS>ATOM
1	CL22	13.956	-2.016	21.453	Cl	1	LIG1	0.000	
2	 O21	9.221	1.303	21.266	O.2	1	LIG1	0.000	
3	 N23	6.726	0.339	17.799	N.2	1	LIG1	0.000	
4	 C24	8.779	0.287	21.824	C.2	1	LIG1	0.000	
5	 C25	7.346	-0.149	18.860	C.2	1	LIG1	0.000	
6	 C26	13.642	0.173	22.969	C.2	1	LIG1	0.000	
7	 C27	12.931	1.068	23.693	C.2	1	LIG1	0.000	
8	 C28	11.622	-1.001	22.329	C.2	1	LIG1	0.000	
9	 C29	3.467	2.437	20.641	C.2	1	LIG1	0.000	
10	 C30	4.106	1.989	21.767	C.2	1	LIG1	0.000	
11	 C31	12.992	-0.872	22.299	C.2	1	LIG1	0.000	
12	 C32	11.562	0.967	23.751	C.2	1	LIG1	0.000	
13	 C33	10.871	-0.074	23.087	C.2	1	LIG1	0.000	
14	 C34	5.606	1.070	17.945	C.2	1	LIG1	0.000	
15	 C35	3.942	2.142	19.381	C.2	1	LIG1	0.000	
16	 C36	5.252	1.244	21.642	C.2	1	LIG1	0.000	
17	 C37	6.977	0.209	20.166	C.2	1	LIG1	0.000	
18	 C38	5.097	1.397	19.223	C.2	1	LIG1	0.000	
19	 C39	5.765	0.930	20.366	C.2	1	LIG1	0.000	
20	 N40	7.669	-0.323	21.293	N.pl3	1	LIG1	0.000	
21	 N41	10.894	1.900	24.551	N.pl3	1	LIG1	0.000	
22	 C42	7.206	-1.636	21.774	C.3	1	LIG1	0.000	
23	 C43	9.503	2.007	24.449	C.3	1	LIG1	0.000	
24	 C44	7.554	-1.921	23.239	C.3	1	LIG1	0.000	
25	 C45	8.782	0.731	24.256	C.3	1	LIG1	0.000	
26	 C46	9.006	-1.585	23.529	C.3	1	LIG1	0.000	
27	 C47	9.384	-0.146	23.160	C.3	1	LIG1	0.000	
@<TRIPOS>BOND
1 2 4 2
2 3 14 ar
3 4 20 1
4 4 27 1
5 3 5 ar
6 6 11 ar
7 6 7 ar
8 8 13 ar
9 9 10 ar
10 10 16 ar
11 1 11 1
12 8 11 ar
13 7 12 ar
14 12 13 ar
15 14 18 ar
16 9 15 ar
17 16 19 ar
18 5 17 ar
19 17 19 ar
20 15 18 ar
21 18 19 ar
22 17 20 1
23 20 22 1
24 12 21 1
25 22 24 1
26 21 23 1
27 24 26 1
28 23 25 1
29 26 27 1
30 13 27 1
31 25 27 1
@<TRIPOS>SUBSTRUCTURE
1	LIG1	1	GROUP	1 C	LIG
