# created with PyMOL 3.1.3.1
@<TRIPOS>MOLECULE
predicted
24 26 1                 
SMALL
USER_CHARGES
@<TRIPOS>ATOM
1	 O18	8.660	0.252	21.323	O.2	1	LIG1	0.000	
2	 N22	6.433	-0.713	17.636	N.2	1	LIG1	0.000	
3	 S23	12.044	-2.933	22.886	S.3	1	LIG1	0.000	
4	 C24	8.569	-0.909	21.684	C.2	1	LIG1	0.000	
5	 C25	7.136	-1.307	18.601	C.2	1	LIG1	0.000	
6	 C26	3.294	0.944	20.828	C.2	1	LIG1	0.000	
7	 C27	4.016	0.386	21.844	C.2	1	LIG1	0.000	
8	 C28	5.329	-0.066	17.900	C.2	1	LIG1	0.000	
9	 C29	3.711	0.809	19.521	C.2	1	LIG1	0.000	
10	 C30	5.161	-0.319	21.591	C.2	1	LIG1	0.000	
11	 C31	6.799	-1.204	19.917	C.2	1	LIG1	0.000	
12	 C32	4.865	0.103	19.213	C.2	1	LIG1	0.000	
13	 C33	5.610	-0.488	20.271	C.2	1	LIG1	0.000	
14	 N34	9.234	-1.361	22.808	N.pl3	1	LIG1	0.000	
15	 C35	7.678	-1.865	20.928	C.3	1	LIG1	0.000	
16	 C36	12.398	-1.235	23.681	C.3	1	LIG1	0.000	
17	 C37	9.938	-0.460	23.653	C.3	1	LIG1	0.000	
18	 C38	11.389	-0.212	23.138	C.3	1	LIG1	0.000	
19	 C39	8.038	-3.131	24.033	C.3	1	LIG1	0.000	
20	 C40	10.512	-3.399	23.711	C.3	1	LIG1	0.000	
21	 C41	9.257	-2.804	23.113	C.3	1	LIG1	0.000	
22	 F19	6.987	-2.367	23.721	 F	1	LIG1	0.000	
23	 F20	7.695	-4.419	23.876	 F	1	LIG1	0.000	
24	 F21	8.238	-2.908	25.311	 F	1	LIG1	0.000	
@<TRIPOS>BOND
1 1 4 2
2 2 8 ar
3 3 20 1
4 4 14 1
5 4 15 1
6 2 5 ar
7 6 7 ar
8 7 10 ar
9 8 12 ar
10 6 9 ar
11 10 13 ar
12 5 11 ar
13 11 13 ar
14 9 12 ar
15 12 13 ar
16 14 17 1
17 14 21 1
18 11 15 1
19 3 16 1
20 17 18 1
21 16 18 1
22 19 22 1
23 19 23 1
24 19 24 1
25 20 21 1
26 19 21 1
@<TRIPOS>SUBSTRUCTURE
1	LIG1	1	GROUP	1 C	LIG
