# created with PyMOL 3.1.3.1
@<TRIPOS>MOLECULE
predicted
38 43 1                 
SMALL
USER_CHARGES
@<TRIPOS>ATOM
1	CL31	-14.231	-1.844	-21.608	Cl	1	LIG1	0.000	
2	 O29	-8.148	2.213	-23.000	O.2	1	LIG1	0.000	
3	 O30	-9.708	0.248	-20.698	O.2	1	LIG1	0.000	
4	 N32	-7.013	0.068	-17.515	N.2	1	LIG1	0.000	
5	 N33	-6.932	5.786	-24.353	N.pl3	1	LIG1	0.000	
6	 O34	-9.305	-2.864	-24.571	O.3	1	LIG1	0.000	
7	 C35	-9.358	2.112	-23.266	C.2	1	LIG1	0.000	
8	 C36	-8.931	-0.203	-21.482	C.2	1	LIG1	0.000	
9	 C37	-8.068	5.131	-24.578	C.2	1	LIG1	0.000	
10	 C38	-7.557	-0.306	-18.660	C.2	1	LIG1	0.000	
11	 C39	-12.639	-3.239	-23.267	C.2	1	LIG1	0.000	
12	 C40	-11.465	-3.476	-23.942	C.2	1	LIG1	0.000	
13	 C41	-11.680	-1.250	-22.297	C.2	1	LIG1	0.000	
14	 C42	-3.574	2.230	-19.968	C.2	1	LIG1	0.000	
15	 C43	-4.149	1.849	-21.172	C.2	1	LIG1	0.000	
16	 C44	-12.743	-2.130	-22.436	C.2	1	LIG1	0.000	
17	 C45	-10.435	-2.592	-23.823	C.2	1	LIG1	0.000	
18	 C46	-10.477	-1.458	-22.961	C.2	1	LIG1	0.000	
19	 C47	-8.776	5.104	-23.374	C.2	1	LIG1	0.000	
20	 C48	-5.916	0.744	-17.528	C.2	1	LIG1	0.000	
21	 C49	-4.154	1.879	-18.762	C.2	1	LIG1	0.000	
22	 C50	-5.307	1.121	-21.204	C.2	1	LIG1	0.000	
23	 C51	-7.049	-0.001	-19.905	C.2	1	LIG1	0.000	
24	 C52	-8.021	5.816	-22.440	C.2	1	LIG1	0.000	
25	 C53	-5.300	1.117	-18.747	C.2	1	LIG1	0.000	
26	 C54	-5.886	0.751	-19.965	C.2	1	LIG1	0.000	
27	 N55	-7.650	-0.396	-21.120	N.pl3	1	LIG1	0.000	
28	 N56	-10.280	3.126	-23.153	N.pl3	1	LIG1	0.000	
29	 N57	-6.906	6.203	-23.038	N.2	1	LIG1	0.000	
30	 C58	-8.111	-2.387	-23.978	C.3	1	LIG1	0.000	
31	 C59	-11.687	2.849	-23.018	C.3	1	LIG1	0.000	
32	 C60	-12.594	3.564	-23.934	C.3	1	LIG1	0.000	
33	 C61	-12.372	5.052	-23.786	C.3	1	LIG1	0.000	
34	 C62	-9.881	0.795	-23.636	C.3	1	LIG1	0.000	
35	 C63	-8.187	-0.928	-23.744	C.3	1	LIG1	0.000	
36	 C64	-10.985	5.303	-24.097	C.3	1	LIG1	0.000	
37	 C65	-9.360	-0.496	-22.910	C.3	1	LIG1	0.000	
38	 C66	-10.020	4.548	-23.048	C.3	1	LIG1	0.000	
@<TRIPOS>BOND
1 2 7 2
2 4 20 ar
3 5 29 ar
4 6 17 1
5 7 28 1
6 7 34 1
7 3 8 2
8 8 27 1
9 5 9 ar
10 4 10 ar
11 11 16 ar
12 11 12 ar
13 13 18 ar
14 14 15 ar
15 15 22 ar
16 1 16 1
17 13 16 ar
18 12 17 ar
19 17 18 ar
20 9 19 ar
21 19 24 ar
22 20 25 ar
23 14 21 ar
24 22 26 ar
25 10 23 ar
26 23 26 ar
27 21 25 ar
28 25 26 ar
29 23 27 1
30 28 31 1
31 28 38 1
32 24 29 ar
33 6 30 1
34 31 32 1
35 32 33 1
36 33 36 1
37 34 37 1
38 30 35 1
39 36 38 1
40 8 37 1
41 18 37 1
42 35 37 1
43 19 38 1
@<TRIPOS>SUBSTRUCTURE
1	LIG1	1	GROUP	1 C	LIG
