# created with PyMOL 3.1.3.1
@<TRIPOS>MOLECULE
predicted
32 35 1                 
SMALL
USER_CHARGES
@<TRIPOS>ATOM
1	CL27	13.709	-1.309	21.741	Cl	1	LIG1	0.000	
2	 O24	8.840	0.280	21.406	O.2	1	LIG1	0.000	
3	 O25	6.588	-4.237	26.145	O.2	1	LIG1	0.000	
4	 O26	5.405	-2.944	24.574	O.2	1	LIG1	0.000	
5	 N28	6.542	0.223	17.589	N.2	1	LIG1	0.000	
6	 O29	5.562	-5.463	20.449	O.3	1	LIG1	0.000	
7	 C30	8.246	-0.769	21.590	C.2	1	LIG1	0.000	
8	 C31	7.084	-0.438	18.580	C.2	1	LIG1	0.000	
9	 C32	12.606	-2.116	24.044	C.2	1	LIG1	0.000	
10	 C33	11.524	-2.443	24.864	C.2	1	LIG1	0.000	
11	 C34	11.102	-1.569	22.304	C.2	1	LIG1	0.000	
12	 C35	3.282	2.043	20.594	C.2	1	LIG1	0.000	
13	 C36	3.853	1.382	21.646	C.2	1	LIG1	0.000	
14	 C37	12.374	-1.675	22.776	C.2	1	LIG1	0.000	
15	 C38	10.208	-2.308	24.386	C.2	1	LIG1	0.000	
16	 C39	10.002	-1.825	23.105	C.2	1	LIG1	0.000	
17	 C40	5.467	0.969	17.798	C.2	1	LIG1	0.000	
18	 C41	3.799	1.930	19.324	C.2	1	LIG1	0.000	
19	 C42	4.942	0.584	21.459	C.2	1	LIG1	0.000	
20	 C43	6.613	-0.371	19.879	C.2	1	LIG1	0.000	
21	 C44	4.910	1.119	19.088	C.2	1	LIG1	0.000	
22	 C45	5.480	0.442	20.152	C.2	1	LIG1	0.000	
23	 N46	7.162	-1.158	20.886	N.pl3	1	LIG1	0.000	
24	 N47	6.715	-4.962	23.750	N.3	1	LIG1	0.000	
25	 N48	7.849	-2.706	24.601	N.3	1	LIG1	0.000	
26	 C49	7.768	-5.890	24.037	C.3	1	LIG1	0.000	
27	 C50	9.073	-2.648	25.315	C.3	1	LIG1	0.000	
28	 C51	6.274	-5.774	21.495	C.3	1	LIG1	0.000	
29	 C52	5.703	-5.255	22.842	C.3	1	LIG1	0.000	
30	 C53	7.665	-1.670	23.721	C.3	1	LIG1	0.000	
31	 C54	8.633	-1.761	22.597	C.3	1	LIG1	0.000	
32	 S55	6.592	-3.707	24.855	S.O2	1	LIG1	0.000	
@<TRIPOS>BOND
1 5 17 ar
2 2 7 2
3 7 23 1
4 5 8 ar
5 9 14 ar
6 9 10 ar
7 11 16 ar
8 12 13 ar
9 13 19 ar
10 1 14 1
11 11 14 ar
12 10 15 ar
13 15 16 ar
14 16 31 1
15 17 21 ar
16 12 18 ar
17 19 22 ar
18 8 20 ar
19 20 22 ar
20 18 21 ar
21 21 22 ar
22 20 23 1
23 24 29 1
24 24 32 1
25 25 27 1
26 25 30 1
27 24 26 1
28 15 27 1
29 6 28 1
30 28 29 1
31 7 31 1
32 30 31 1
33 3 32 2
34 4 32 2
35 25 32 1
@<TRIPOS>SUBSTRUCTURE
1	LIG1	1	GROUP	1 C	LIG
