# created with PyMOL 3.1.3.1
@<TRIPOS>MOLECULE
predicted
40 45 1                 
SMALL
USER_CHARGES
@<TRIPOS>ATOM
1	CL29	13.384	-3.291	22.442	Cl	1	LIG1	0.000	
2	 O26	10.614	2.576	23.798	O.2	1	LIG1	0.000	
3	 O27	5.906	2.338	23.700	O.2	1	LIG1	0.000	
4	 O28	8.774	0.553	21.139	O.2	1	LIG1	0.000	
5	 N30	4.636	-6.573	22.844	N.2	1	LIG1	0.000	
6	 N31	6.942	-6.103	22.942	N.2	1	LIG1	0.000	
7	 N32	5.386	-4.897	24.291	N.2	1	LIG1	0.000	
8	 N33	6.343	-0.839	17.720	N.2	1	LIG1	0.000	
9	 C34	10.116	1.451	23.798	C.2	1	LIG1	0.000	
10	 C35	6.970	2.843	23.552	C.2	1	LIG1	0.000	
11	 C36	8.338	-0.441	21.687	C.2	1	LIG1	0.000	
12	 C37	5.934	-6.809	22.444	C.2	1	LIG1	0.000	
13	 C38	4.405	-5.638	23.804	C.2	1	LIG1	0.000	
14	 C39	6.674	-5.137	23.875	C.2	1	LIG1	0.000	
15	 C40	7.019	-1.218	18.808	C.2	1	LIG1	0.000	
16	 C41	13.020	-0.776	23.148	C.2	1	LIG1	0.000	
17	 C42	12.282	0.331	23.439	C.2	1	LIG1	0.000	
18	 C43	11.011	-2.054	22.747	C.2	1	LIG1	0.000	
19	 C44	3.027	1.294	20.487	C.2	1	LIG1	0.000	
20	 C45	3.692	0.909	21.636	C.2	1	LIG1	0.000	
21	 C46	12.404	-1.970	22.787	C.2	1	LIG1	0.000	
22	 C47	10.911	0.272	23.436	C.2	1	LIG1	0.000	
23	 C48	10.267	-0.938	23.129	C.2	1	LIG1	0.000	
24	 C49	5.206	-0.160	17.861	C.2	1	LIG1	0.000	
25	 C50	3.533	0.938	19.241	C.2	1	LIG1	0.000	
26	 C51	4.842	0.187	21.535	C.2	1	LIG1	0.000	
27	 C52	6.580	-0.887	20.099	C.2	1	LIG1	0.000	
28	 C53	4.691	0.217	19.123	C.2	1	LIG1	0.000	
29	 C54	5.368	-0.153	20.282	C.2	1	LIG1	0.000	
30	 N55	7.217	3.700	22.558	N.pl3	1	LIG1	0.000	
31	 N56	7.766	-4.409	24.373	N.pl3	1	LIG1	0.000	
32	 N57	7.334	-1.216	21.204	N.pl3	1	LIG1	0.000	
33	 N58	8.776	1.300	24.052	N.pl3	1	LIG1	0.000	
34	 C59	6.205	4.159	21.689	C.3	1	LIG1	0.000	
35	 C60	8.066	2.470	24.459	C.3	1	LIG1	0.000	
36	 C61	7.847	-2.951	24.355	C.3	1	LIG1	0.000	
37	 C62	7.126	-2.371	21.983	C.3	1	LIG1	0.000	
38	 C63	8.163	-0.033	24.143	C.3	1	LIG1	0.000	
39	 C64	8.183	-2.346	23.062	C.3	1	LIG1	0.000	
40	 C65	8.762	-0.973	23.033	C.3	1	LIG1	0.000	
@<TRIPOS>BOND
1 5 13 ar
2 6 12 ar
3 8 24 ar
4 2 9 2
5 3 10 2
6 10 35 1
7 4 11 2
8 11 32 1
9 5 12 ar
10 7 13 ar
11 6 14 ar
12 7 14 ar
13 8 15 ar
14 16 17 ar
15 17 22 ar
16 18 21 ar
17 19 20 ar
18 20 26 ar
19 1 21 1
20 16 21 ar
21 9 22 1
22 18 23 ar
23 22 23 ar
24 24 28 ar
25 19 25 ar
26 26 29 ar
27 15 27 ar
28 27 29 ar
29 25 28 ar
30 28 29 ar
31 10 30 1
32 14 31 1
33 27 32 1
34 32 37 1
35 9 33 1
36 33 38 1
37 30 34 1
38 33 35 1
39 31 36 1
40 37 39 1
41 38 40 1
42 36 39 1
43 11 40 1
44 23 40 1
45 39 40 1
@<TRIPOS>SUBSTRUCTURE
1	LIG1	1	GROUP	1 C	LIG
