# created with PyMOL 3.1.3.1
@<TRIPOS>MOLECULE
predicted
36 40 1                 
SMALL
USER_CHARGES
@<TRIPOS>ATOM
1	CL32	13.140	-2.814	21.347	Cl	1	LIG1	0.000	
2	 O30	8.648	0.001	21.108	O.2	1	LIG1	0.000	
3	 O31	6.227	-7.322	22.228	O.2	1	LIG1	0.000	
4	 N33	6.348	-0.842	17.539	N.2	1	LIG1	0.000	
5	 C34	8.015	-0.890	21.681	C.2	1	LIG1	0.000	
6	 C35	6.248	-6.195	22.509	C.2	1	LIG1	0.000	
7	 C36	6.864	-1.401	18.623	C.2	1	LIG1	0.000	
8	 C37	12.365	-1.851	25.053	C.2	1	LIG1	0.000	
9	 C38	5.358	-2.523	24.863	C.2	1	LIG1	0.000	
10	 C39	12.987	-2.335	23.930	C.2	1	LIG1	0.000	
11	 C40	6.260	-1.614	24.338	C.2	1	LIG1	0.000	
12	 C41	11.114	-1.228	24.924	C.2	1	LIG1	0.000	
13	 C42	11.151	-1.530	22.627	C.2	1	LIG1	0.000	
14	 C43	5.552	-3.883	24.713	C.2	1	LIG1	0.000	
15	 C44	3.062	1.348	20.158	C.2	1	LIG1	0.000	
16	 C45	3.589	0.820	21.302	C.2	1	LIG1	0.000	
17	 C46	12.376	-2.181	22.736	C.2	1	LIG1	0.000	
18	 C47	7.379	-2.074	23.683	C.2	1	LIG1	0.000	
19	 C48	10.526	-1.016	23.726	C.2	1	LIG1	0.000	
20	 C49	7.636	-3.444	23.614	C.2	1	LIG1	0.000	
21	 C50	6.660	-4.346	24.021	C.2	1	LIG1	0.000	
22	 C51	5.302	-0.090	17.628	C.2	1	LIG1	0.000	
23	 C52	3.619	1.066	18.951	C.2	1	LIG1	0.000	
24	 C53	4.688	-0.014	21.265	C.2	1	LIG1	0.000	
25	 C54	6.381	-1.157	19.877	C.2	1	LIG1	0.000	
26	 C55	4.715	0.226	18.860	C.2	1	LIG1	0.000	
27	 C56	5.265	-0.323	20.018	C.2	1	LIG1	0.000	
28	 N57	8.194	-1.116	22.993	N.pl3	1	LIG1	0.000	
29	 C58	7.032	-1.794	21.025	C.3	1	LIG1	0.000	
30	 C59	9.158	-0.310	23.678	C.3	1	LIG1	0.000	
31	 C60	6.347	-5.202	20.218	C.3	1	LIG1	0.000	
32	 C61	5.586	-5.243	21.550	C.3	1	LIG1	0.000	
33	 C62	8.829	-4.078	23.097	C.3	1	LIG1	0.000	
34	 C63	9.209	-5.322	23.664	C.3	1	LIG1	0.000	
35	 C64	8.040	-6.253	24.115	C.3	1	LIG1	0.000	
36	 N65	6.860	-5.690	23.615	N.pl3	1	LIG1	0.000	
@<TRIPOS>BOND
1 4 22 ar
2 2 5 2
3 5 29 1
4 3 6 2
5 6 36 1
6 4 7 ar
7 8 10 ar
8 9 14 ar
9 10 17 ar
10 9 11 ar
11 8 12 ar
12 14 21 ar
13 15 16 ar
14 16 24 ar
15 1 17 1
16 13 17 ar
17 11 18 ar
18 18 28 1
19 12 19 ar
20 13 19 ar
21 18 20 ar
22 20 21 ar
23 22 26 ar
24 15 23 ar
25 24 27 ar
26 7 25 ar
27 25 27 ar
28 23 26 ar
29 26 27 ar
30 5 28 1
31 28 30 1
32 25 29 1
33 19 30 1
34 31 32 1
35 6 32 1
36 20 33 1
37 33 34 1
38 34 35 1
39 21 36 1
40 35 36 1
@<TRIPOS>SUBSTRUCTURE
1	LIG1	1	GROUP	1 C	LIG
