# created with PyMOL 3.1.3.1
@<TRIPOS>MOLECULE
predicted
18 19 1                 
SMALL
USER_CHARGES
@<TRIPOS>ATOM
1	CL14	13.534	-1.758	21.584	Cl	1	LIG1	0.000	
2	 O13	8.779	1.094	20.819	O.2	1	LIG1	0.000	
3	 N15	6.598	0.513	17.330	N.2	1	LIG1	0.000	
4	 N16	5.506	1.248	17.327	N.2	1	LIG1	0.000	
5	 C17	8.196	0.223	21.368	C.2	1	LIG1	0.000	
6	 C18	7.129	0.026	18.463	C.2	1	LIG1	0.000	
7	 C19	4.854	1.500	18.457	C.2	1	LIG1	0.000	
8	 C20	11.823	1.150	23.770	C.2	1	LIG1	0.000	
9	 C21	12.786	0.345	23.142	C.2	1	LIG1	0.000	
10	 C22	10.468	0.885	23.617	C.2	1	LIG1	0.000	
11	 C23	11.028	-0.997	22.191	C.2	1	LIG1	0.000	
12	 C24	12.372	-0.735	22.360	C.2	1	LIG1	0.000	
13	 C25	6.482	0.274	19.666	C.2	1	LIG1	0.000	
14	 C26	5.325	1.025	19.638	C.2	1	LIG1	0.000	
15	 C27	10.104	-0.210	22.843	C.2	1	LIG1	0.000	
16	 N28	7.000	-0.249	20.873	N.pl3	1	LIG1	0.000	
17	 C29	4.575	1.379	20.905	C.3	1	LIG1	0.000	
18	 C30	8.621	-0.460	22.660	C.3	1	LIG1	0.000	
@<TRIPOS>BOND
1 3 6 ar
2 3 4 ar
3 2 5 2
4 5 18 1
5 6 13 ar
6 4 7 ar
7 8 9 ar
8 9 12 ar
9 8 10 ar
10 1 12 1
11 11 12 ar
12 13 16 1
13 7 14 ar
14 13 14 ar
15 10 15 ar
16 11 15 ar
17 5 16 1
18 14 17 1
19 15 18 1
@<TRIPOS>SUBSTRUCTURE
1	LIG1	1	GROUP	1 C	LIG
