# created with PyMOL 3.1.3.1
@<TRIPOS>MOLECULE
predicted
19 21 1                 
SMALL
USER_CHARGES
@<TRIPOS>ATOM
1	 O18	6.313	-4.103	20.363	O.3	1	LIG1	0.000	
2	 C19	7.167	-3.280	20.502	C.3	1	LIG1	0.000	
3	 C20	12.977	0.441	23.240	C.2	1	LIG1	0.000	
4	 C21	8.646	-4.821	26.134	C.2	1	LIG1	0.000	
5	 C22	11.728	0.844	23.753	C.2	1	LIG1	0.000	
6	 C23	13.079	-0.798	22.611	C.2	1	LIG1	0.000	
7	 C24	9.826	-4.117	26.163	C.2	1	LIG1	0.000	
8	 C25	7.734	-4.638	25.069	C.2	1	LIG1	0.000	
9	 C26	10.610	0.008	23.621	C.2	1	LIG1	0.000	
10	 C27	11.953	-1.627	22.463	C.2	1	LIG1	0.000	
11	 C28	10.108	-3.255	25.112	C.2	1	LIG1	0.000	
12	 C29	8.039	-3.739	24.037	C.2	1	LIG1	0.000	
13	 C30	10.731	-1.250	23.032	C.2	1	LIG1	0.000	
14	 C31	9.235	-3.040	24.061	C.2	1	LIG1	0.000	
15	 N32	7.534	-2.890	21.748	N.3	1	LIG1	0.000	
16	 C33	7.791	-2.619	19.279	C.3	1	LIG1	0.000	
17	 C34	7.017	-3.523	22.917	C.3	1	LIG1	0.000	
18	 C35	8.545	-1.861	21.966	C.3	1	LIG1	0.000	
19	 C36	9.584	-2.191	22.918	C.3	1	LIG1	0.000	
@<TRIPOS>BOND
1 1 2 1
2 2 15 1
3 3 6 ar
4 4 7 ar
5 3 5 ar
6 6 10 ar
7 7 11 ar
8 4 8 ar
9 5 9 ar
10 11 14 ar
11 8 12 ar
12 12 14 ar
13 9 13 ar
14 10 13 ar
15 14 19 1
16 15 17 1
17 15 18 1
18 2 16 1
19 12 17 1
20 13 19 1
21 18 19 1
@<TRIPOS>SUBSTRUCTURE
1	LIG1	1	GROUP	1 C	LIG
