# created with PyMOL 3.1.3.1
@<TRIPOS>MOLECULE
predicted
24 27 1                 
SMALL
USER_CHARGES
@<TRIPOS>ATOM
1	CL19	-13.993	-3.112	-24.572	Cl	1	LIG1	0.000	
2	CL20	-13.672	-1.433	-21.958	Cl	1	LIG1	0.000	
3	 O18	-8.877	-0.002	-21.011	O.2	1	LIG1	0.000	
4	 N21	-6.670	0.006	-17.280	N.2	1	LIG1	0.000	
5	 C22	-8.166	-0.915	-21.376	C.2	1	LIG1	0.000	
6	 C23	-5.545	0.673	-17.321	C.2	1	LIG1	0.000	
7	 C24	-7.142	-0.614	-18.376	C.2	1	LIG1	0.000	
8	 C25	-11.302	-3.095	-24.621	C.2	1	LIG1	0.000	
9	 C26	-4.859	0.815	-18.523	C.2	1	LIG1	0.000	
10	 C27	-11.034	-1.655	-22.268	C.2	1	LIG1	0.000	
11	 C28	-12.418	-2.690	-23.937	C.2	1	LIG1	0.000	
12	 C29	-12.293	-1.952	-22.756	C.2	1	LIG1	0.000	
13	 C30	-6.500	-0.514	-19.608	C.2	1	LIG1	0.000	
14	 C31	-10.042	-2.813	-24.147	C.2	1	LIG1	0.000	
15	 C32	-5.302	0.154	-19.637	C.2	1	LIG1	0.000	
16	 C33	-9.876	-2.056	-22.954	C.2	1	LIG1	0.000	
17	 N34	-7.003	-1.236	-20.747	N.pl3	1	LIG1	0.000	
18	 N35	-8.968	-3.239	-24.865	N.2	1	LIG1	0.000	
19	 C36	-7.719	-2.988	-24.480	C.2	1	LIG1	0.000	
20	 C37	-3.407	1.197	-21.070	C.3	1	LIG1	0.000	
21	 C38	-4.706	1.608	-21.683	C.3	1	LIG1	0.000	
22	 C39	-4.545	0.241	-20.979	C.3	1	LIG1	0.000	
23	 C40	-7.469	-2.223	-23.354	C.2	1	LIG1	0.000	
24	 C41	-8.529	-1.778	-22.522	C.2	1	LIG1	0.000	
@<TRIPOS>BOND
1 3 5 2
2 4 6 ar
3 5 17 1
4 5 24 1
5 6 9 ar
6 4 7 ar
7 8 11 ar
8 9 15 ar
9 10 16 ar
10 1 11 1
11 11 12 ar
12 2 12 1
13 10 12 ar
14 7 13 ar
15 13 15 ar
16 8 14 ar
17 14 16 ar
18 15 22 1
19 13 17 1
20 14 18 ar
21 18 19 ar
22 20 21 1
23 20 22 1
24 21 22 1
25 19 23 ar
26 16 24 ar
27 23 24 ar
@<TRIPOS>SUBSTRUCTURE
1	LIG1	1	GROUP	1 C	LIG
