# created with PyMOL 3.1.3.1
@<TRIPOS>MOLECULE
predicted
28 31 1                 
SMALL
USER_CHARGES
@<TRIPOS>ATOM
1	 O22	8.987	1.194	20.908	O.2	1	LIG1	0.000	
2	 N23	6.529	0.403	17.790	N.2	1	LIG1	0.000	
3	 N24	12.644	0.993	23.672	N.pl3	1	LIG1	0.000	
4	 N25	7.395	-0.282	18.470	N.2	1	LIG1	0.000	
5	 C26	8.756	0.122	21.476	C.2	1	LIG1	0.000	
6	 C27	11.649	0.473	23.063	C.2	1	LIG1	0.000	
7	 C28	9.810	-3.532	24.075	C.2	1	LIG1	0.000	
8	 C29	7.977	-2.487	25.201	C.2	1	LIG1	0.000	
9	 C30	9.964	-2.402	23.311	C.2	1	LIG1	0.000	
10	 C31	8.148	-1.355	24.435	C.2	1	LIG1	0.000	
11	 C32	3.775	2.100	19.602	C.2	1	LIG1	0.000	
12	 C33	4.154	1.718	20.886	C.2	1	LIG1	0.000	
13	 C34	12.153	-0.461	22.197	C.2	1	LIG1	0.000	
14	 C35	8.835	-3.596	25.045	C.2	1	LIG1	0.000	
15	 C36	9.154	-1.322	23.483	C.2	1	LIG1	0.000	
16	 C37	4.494	1.700	18.478	C.2	1	LIG1	0.000	
17	 C38	5.278	0.938	21.074	C.2	1	LIG1	0.000	
18	 C39	13.512	-0.492	22.372	C.2	1	LIG1	0.000	
19	 C40	5.615	0.896	18.633	C.2	1	LIG1	0.000	
20	 C41	5.977	0.514	19.943	C.2	1	LIG1	0.000	
21	 N42	8.673	-4.751	25.799	N.pl3	1	LIG1	0.000	
22	 N43	9.304	-0.140	22.680	N.pl3	1	LIG1	0.000	
23	 N44	13.807	0.362	23.231	N.2	1	LIG1	0.000	
24	 N45	7.082	-0.237	19.761	N.2	1	LIG1	0.000	
25	 C46	7.526	-4.931	26.584	C.3	1	LIG1	0.000	
26	 C47	9.762	-5.665	25.896	C.3	1	LIG1	0.000	
27	 C48	10.208	0.834	23.305	C.3	1	LIG1	0.000	
28	 C49	7.872	-0.875	20.846	C.3	1	LIG1	0.000	
@<TRIPOS>BOND
1 2 19 ar
2 2 4 ar
3 1 5 2
4 5 28 1
5 3 6 ar
6 6 13 ar
7 7 9 ar
8 9 15 ar
9 8 10 ar
10 11 12 ar
11 12 17 ar
12 13 18 ar
13 7 14 ar
14 8 14 ar
15 10 15 ar
16 15 22 1
17 11 16 ar
18 17 20 ar
19 18 23 ar
20 16 19 ar
21 19 20 ar
22 14 21 1
23 21 26 1
24 5 22 1
25 22 27 1
26 3 23 ar
27 4 24 ar
28 20 24 ar
29 21 25 1
30 6 27 1
31 24 28 1
@<TRIPOS>SUBSTRUCTURE
1	LIG1	1	GROUP	1 C	LIG
