# created with PyMOL 3.1.3.1
@<TRIPOS>MOLECULE
predicted
22 24 1                 
SMALL
USER_CHARGES
@<TRIPOS>ATOM
1	 O16	8.701	0.875	21.206	O.2	1	LIG1	0.000	
2	 N18	6.440	0.743	17.679	N.2	1	LIG1	0.000	
3	 N19	7.268	-0.048	18.283	N.2	1	LIG1	0.000	
4	 C20	8.491	-0.326	21.373	C.2	1	LIG1	0.000	
5	 C21	13.178	0.467	23.680	C.2	1	LIG1	0.000	
6	 C22	13.809	-0.302	22.717	C.2	1	LIG1	0.000	
7	 C23	11.812	0.349	23.889	C.2	1	LIG1	0.000	
8	 C24	11.735	-1.349	22.219	C.2	1	LIG1	0.000	
9	 C25	3.669	2.175	19.651	C.2	1	LIG1	0.000	
10	 C26	3.975	1.583	20.819	C.2	1	LIG1	0.000	
11	 C27	13.117	-1.218	22.008	C.2	1	LIG1	0.000	
12	 C28	11.132	-0.563	23.179	C.2	1	LIG1	0.000	
13	 C29	4.418	1.956	18.517	C.2	1	LIG1	0.000	
14	 C30	5.081	0.769	20.924	C.2	1	LIG1	0.000	
15	 C31	5.503	1.137	18.555	C.2	1	LIG1	0.000	
16	 C32	5.822	0.539	19.788	C.2	1	LIG1	0.000	
17	 N33	8.939	-1.061	22.451	N.pl3	1	LIG1	0.000	
18	 N34	6.915	-0.196	19.530	N.2	1	LIG1	0.000	
19	 C35	8.728	-2.424	22.581	C.3	1	LIG1	0.000	
20	 C36	9.622	-0.567	23.517	C.2	1	LIG1	0.000	
21	 C37	7.650	-1.046	20.462	C.3	1	LIG1	0.000	
22	 F17	13.722	-1.934	21.068	 F	1	LIG1	0.000	
@<TRIPOS>BOND
1 2 15 ar
2 2 3 ar
3 1 4 2
4 4 21 1
5 5 6 ar
6 6 11 ar
7 5 7 ar
8 9 10 ar
9 10 14 ar
10 8 11 ar
11 11 22 1
12 7 12 ar
13 8 12 ar
14 9 13 ar
15 14 16 ar
16 13 15 ar
17 15 16 ar
18 4 17 1
19 17 20 2
20 3 18 ar
21 16 18 ar
22 17 19 1
23 12 20 1
24 18 21 1
@<TRIPOS>SUBSTRUCTURE
1	LIG1	1	GROUP	1 C	LIG
