# created with PyMOL 3.1.3.1
@<TRIPOS>MOLECULE
predicted
23 26 1                 
SMALL
USER_CHARGES
@<TRIPOS>ATOM
1	 O18	-5.928	-2.788	-21.639	O.2	1	LIG1	0.000	
2	 O19	-8.475	0.911	-21.385	O.2	1	LIG1	0.000	
3	 N20	-5.906	0.093	-17.845	N.2	1	LIG1	0.000	
4	 O21	-9.407	-0.140	-25.083	O.3	1	LIG1	0.000	
5	 C22	-6.797	-2.026	-21.922	C.2	1	LIG1	0.000	
6	 C23	-8.091	-0.179	-21.804	C.2	1	LIG1	0.000	
7	 C24	-6.615	-0.399	-18.858	C.2	1	LIG1	0.000	
8	 C25	-2.554	1.583	-20.897	C.2	1	LIG1	0.000	
9	 C26	-3.264	1.081	-21.962	C.2	1	LIG1	0.000	
10	 C27	-4.742	0.669	-18.065	C.2	1	LIG1	0.000	
11	 C28	-3.027	1.471	-19.619	C.2	1	LIG1	0.000	
12	 C29	-4.446	0.456	-21.765	C.2	1	LIG1	0.000	
13	 C30	-6.189	-0.345	-20.170	C.2	1	LIG1	0.000	
14	 C31	-4.223	0.827	-19.365	C.2	1	LIG1	0.000	
15	 C32	-4.956	0.312	-20.452	C.2	1	LIG1	0.000	
16	 N33	-6.994	-0.842	-21.263	N.pl3	1	LIG1	0.000	
17	 N34	-7.702	-2.148	-22.891	N.pl3	1	LIG1	0.000	
18	 C35	-8.406	-0.233	-24.215	C.3	1	LIG1	0.000	
19	 C36	-12.437	-1.485	-23.285	C.3	1	LIG1	0.000	
20	 C37	-10.767	-0.391	-24.789	C.3	1	LIG1	0.000	
21	 C38	-10.033	-1.418	-22.655	C.3	1	LIG1	0.000	
22	 C39	-8.620	-1.023	-22.922	C.3	1	LIG1	0.000	
23	 C40	-11.045	-1.270	-23.688	C.3	1	LIG1	0.000	
@<TRIPOS>BOND
1 3 10 ar
2 4 18 1
3 1 5 2
4 5 16 1
5 2 6 2
6 3 7 ar
7 8 9 ar
8 9 12 ar
9 10 14 ar
10 8 11 ar
11 12 15 ar
12 7 13 ar
13 13 15 ar
14 11 14 ar
15 14 15 ar
16 6 16 1
17 13 16 1
18 5 17 1
19 18 22 1
20 19 23 1
21 4 20 1
22 6 22 1
23 17 22 1
24 21 22 1
25 20 23 1
26 21 23 1
@<TRIPOS>SUBSTRUCTURE
1	LIG1	1	GROUP	1 C	LIG
