# created with PyMOL 3.1.3.1
@<TRIPOS>MOLECULE
predicted
35 40 1                 
SMALL
USER_CHARGES
@<TRIPOS>ATOM
1	 O25	11.089	2.155	24.590	O.2	1	LIG1	0.000	
2	 O26	9.045	0.398	21.605	O.2	1	LIG1	0.000	
3	 N28	6.562	-0.679	18.137	N.2	1	LIG1	0.000	
4	 N29	5.767	3.426	23.461	N.2	1	LIG1	0.000	
5	 C30	10.585	1.032	24.392	C.2	1	LIG1	0.000	
6	 C31	8.638	-0.654	22.076	C.2	1	LIG1	0.000	
7	 C32	6.690	3.506	22.551	C.2	1	LIG1	0.000	
8	 C33	7.256	-1.123	19.165	C.2	1	LIG1	0.000	
9	 C34	13.482	-0.966	23.118	C.2	1	LIG1	0.000	
10	 C35	12.751	0.054	23.667	C.2	1	LIG1	0.000	
11	 C36	11.450	-2.242	22.692	C.2	1	LIG1	0.000	
12	 C37	3.192	1.029	21.142	C.2	1	LIG1	0.000	
13	 C38	3.878	0.548	22.231	C.2	1	LIG1	0.000	
14	 C39	7.865	2.961	23.093	C.2	1	LIG1	0.000	
15	 C40	12.846	-2.117	22.629	C.2	1	LIG1	0.000	
16	 C41	11.361	-0.056	23.757	C.2	1	LIG1	0.000	
17	 C42	10.703	-1.241	23.327	C.2	1	LIG1	0.000	
18	 C43	5.394	-0.044	18.336	C.2	1	LIG1	0.000	
19	 C44	3.686	0.834	19.846	C.2	1	LIG1	0.000	
20	 C45	5.060	-0.103	22.048	C.2	1	LIG1	0.000	
21	 C46	6.828	-0.961	20.493	C.2	1	LIG1	0.000	
22	 C47	7.546	2.543	24.375	C.2	1	LIG1	0.000	
23	 C48	4.881	0.175	19.636	C.2	1	LIG1	0.000	
24	 C49	5.590	-0.296	20.756	C.2	1	LIG1	0.000	
25	 N50	7.615	-1.376	21.560	N.pl3	1	LIG1	0.000	
26	 N51	9.238	0.815	24.689	N.pl3	1	LIG1	0.000	
27	 N52	6.305	2.873	24.583	N.2	1	LIG1	0.000	
28	 C53	8.495	1.858	25.374	C.3	1	LIG1	0.000	
29	 C54	5.523	2.644	25.774	C.3	1	LIG1	0.000	
30	 C55	8.551	-3.504	24.424	C.3	1	LIG1	0.000	
31	 C56	7.470	-2.622	22.244	C.3	1	LIG1	0.000	
32	 C57	8.639	-0.516	24.573	C.3	1	LIG1	0.000	
33	 C58	8.622	-2.689	23.209	C.3	1	LIG1	0.000	
34	 C59	9.189	-1.299	23.344	C.3	1	LIG1	0.000	
35	 F27	13.595	-3.085	22.106	 F	1	LIG1	0.000	
@<TRIPOS>BOND
1 3 18 ar
2 4 27 ar
3 1 5 2
4 5 16 1
5 2 6 2
6 6 34 1
7 4 7 ar
8 3 8 ar
9 9 15 ar
10 9 10 ar
11 11 17 ar
12 12 13 ar
13 13 20 ar
14 7 14 ar
15 11 15 ar
16 15 35 1
17 10 16 ar
18 16 17 ar
19 18 23 ar
20 12 19 ar
21 20 24 ar
22 8 21 ar
23 21 24 ar
24 14 22 ar
25 22 27 ar
26 19 23 ar
27 23 24 ar
28 6 25 1
29 21 25 1
30 5 26 1
31 26 28 1
32 27 29 1
33 22 28 1
34 30 33 1
35 25 31 1
36 26 32 1
37 31 33 1
38 33 34 1
39 17 34 1
40 32 34 1
@<TRIPOS>SUBSTRUCTURE
1	LIG1	1	GROUP	1 C	LIG
