# created with PyMOL 3.1.3.1
@<TRIPOS>MOLECULE
predicted
18 19 1                 
SMALL
USER_CHARGES
@<TRIPOS>ATOM
1	 N16	3.632	3.289	17.387	N.2	1	LIG1	0.000	
2	 O17	8.124	-0.278	23.735	O.2	1	LIG1	0.000	
3	 C18	4.069	2.506	18.145	C.2	1	LIG1	0.000	
4	 O19	12.925	-0.745	22.662	O.3	1	LIG1	0.000	
5	 C20	8.671	-0.722	22.800	C.2	1	LIG1	0.000	
6	 C21	4.592	1.783	20.431	C.2	1	LIG1	0.000	
7	 C22	5.311	0.461	18.551	C.2	1	LIG1	0.000	
8	 C23	5.169	0.860	21.286	C.2	1	LIG1	0.000	
9	 C24	5.882	-0.450	19.420	C.2	1	LIG1	0.000	
10	 C25	4.647	1.574	19.053	C.2	1	LIG1	0.000	
11	 C26	5.813	-0.287	20.808	C.2	1	LIG1	0.000	
12	 N27	7.898	-1.293	21.761	N.pl3	1	LIG1	0.000	
13	 N28	10.052	-0.655	22.750	N.pl3	1	LIG1	0.000	
14	 C29	6.432	-1.358	21.753	C.3	1	LIG1	0.000	
15	 C30	12.197	-1.331	21.653	C.3	1	LIG1	0.000	
16	 C31	12.255	-0.677	23.884	C.3	1	LIG1	0.000	
17	 C32	10.780	-0.876	21.528	C.3	1	LIG1	0.000	
18	 C33	10.834	-0.248	23.885	C.3	1	LIG1	0.000	
@<TRIPOS>BOND
1 1 3 2
2 3 10 1
3 4 16 1
4 2 5 2
5 5 13 1
6 6 8 ar
7 8 11 ar
8 7 9 ar
9 6 10 ar
10 7 10 ar
11 9 11 ar
12 11 14 1
13 5 12 1
14 13 17 1
15 13 18 1
16 12 14 1
17 4 15 1
18 16 18 1
19 15 17 1
@<TRIPOS>SUBSTRUCTURE
1	LIG1	1	GROUP	1 C	LIG
