# created with PyMOL 3.1.3.1
@<TRIPOS>MOLECULE
predicted
36 41 1                 
SMALL
USER_CHARGES
@<TRIPOS>ATOM
1	 O27	11.115	2.136	24.618	O.2	1	LIG1	0.000	
2	 O28	9.110	0.395	21.570	O.2	1	LIG1	0.000	
3	 N30	6.633	-0.680	18.092	N.2	1	LIG1	0.000	
4	 N31	5.863	3.547	23.443	N.2	1	LIG1	0.000	
5	 C32	10.622	1.002	24.397	C.2	1	LIG1	0.000	
6	 C33	8.706	-0.658	22.040	C.2	1	LIG1	0.000	
7	 C34	6.722	3.417	22.498	C.2	1	LIG1	0.000	
8	 C35	7.336	-1.118	19.121	C.2	1	LIG1	0.000	
9	 C36	13.552	-0.951	23.116	C.2	1	LIG1	0.000	
10	 C37	12.809	0.058	23.682	C.2	1	LIG1	0.000	
11	 C38	11.534	-2.226	22.639	C.2	1	LIG1	0.000	
12	 C39	3.216	0.939	21.093	C.2	1	LIG1	0.000	
13	 C40	3.912	0.470	22.186	C.2	1	LIG1	0.000	
14	 C41	7.871	2.792	23.012	C.2	1	LIG1	0.000	
15	 C42	12.924	-2.097	22.589	C.2	1	LIG1	0.000	
16	 C43	11.415	-0.067	23.762	C.2	1	LIG1	0.000	
17	 C44	10.773	-1.243	23.288	C.2	1	LIG1	0.000	
18	 C45	5.449	-0.074	18.291	C.2	1	LIG1	0.000	
19	 C46	3.718	0.761	19.803	C.2	1	LIG1	0.000	
20	 C47	5.107	-0.152	22.008	C.2	1	LIG1	0.000	
21	 C48	6.889	-0.978	20.450	C.2	1	LIG1	0.000	
22	 C49	7.595	2.514	24.339	C.2	1	LIG1	0.000	
23	 C50	4.926	0.128	19.587	C.2	1	LIG1	0.000	
24	 C51	5.633	-0.329	20.700	C.2	1	LIG1	0.000	
25	 N52	7.679	-1.390	21.515	N.pl3	1	LIG1	0.000	
26	 N53	9.280	0.769	24.691	N.pl3	1	LIG1	0.000	
27	 N54	6.411	3.026	24.575	N.2	1	LIG1	0.000	
28	 C55	8.504	1.803	25.333	C.3	1	LIG1	0.000	
29	 C56	4.628	2.101	25.856	C.3	1	LIG1	0.000	
30	 C57	5.676	3.077	25.831	C.3	1	LIG1	0.000	
31	 C58	8.703	-3.549	24.367	C.3	1	LIG1	0.000	
32	 C59	7.549	-2.641	22.189	C.3	1	LIG1	0.000	
33	 C60	8.703	-0.552	24.535	C.3	1	LIG1	0.000	
34	 C61	8.696	-2.704	23.157	C.3	1	LIG1	0.000	
35	 C62	9.259	-1.305	23.292	C.3	1	LIG1	0.000	
36	 F29	13.678	-3.046	22.052	 F	1	LIG1	0.000	
@<TRIPOS>BOND
1 3 18 ar
2 4 7 ar
3 1 5 2
4 2 6 2
5 6 25 1
6 7 14 ar
7 3 8 ar
8 9 10 ar
9 10 16 ar
10 11 15 ar
11 12 13 ar
12 13 20 ar
13 14 22 ar
14 9 15 ar
15 15 36 1
16 5 16 1
17 11 17 ar
18 16 17 ar
19 18 23 ar
20 12 19 ar
21 20 24 ar
22 8 21 ar
23 21 24 ar
24 22 28 1
25 19 23 ar
26 23 24 ar
27 21 25 1
28 25 32 1
29 5 26 1
30 26 33 1
31 4 27 ar
32 22 27 ar
33 26 28 1
34 29 30 1
35 27 30 1
36 32 34 1
37 33 35 1
38 31 34 1
39 6 35 1
40 17 35 1
41 34 35 1
@<TRIPOS>SUBSTRUCTURE
1	LIG1	1	GROUP	1 C	LIG
