# created with PyMOL 3.1.3.1
@<TRIPOS>MOLECULE
predicted
19 20 1                 
SMALL
USER_CHARGES
@<TRIPOS>ATOM
1	CL17	-13.785	-2.066	-21.831	Cl	1	LIG1	0.000	
2	 O16	-8.877	0.749	-21.038	O.2	1	LIG1	0.000	
3	 N18	-6.362	0.119	-17.657	N.2	1	LIG1	0.000	
4	 C19	-8.307	-0.135	-21.596	C.2	1	LIG1	0.000	
5	 C20	-5.246	0.814	-17.775	C.2	1	LIG1	0.000	
6	 C21	-6.989	-0.367	-18.755	C.2	1	LIG1	0.000	
7	 C22	-12.090	0.973	-23.842	C.2	1	LIG1	0.000	
8	 C23	-13.038	0.134	-23.258	C.2	1	LIG1	0.000	
9	 C24	-4.703	1.100	-19.035	C.2	1	LIG1	0.000	
10	 C25	-10.740	0.698	-23.730	C.2	1	LIG1	0.000	
11	 C26	-11.300	-1.283	-22.401	C.2	1	LIG1	0.000	
12	 C27	-12.636	-1.005	-22.553	C.2	1	LIG1	0.000	
13	 C28	-6.493	-0.131	-20.015	C.2	1	LIG1	0.000	
14	 C29	-5.328	0.594	-20.151	C.2	1	LIG1	0.000	
15	 C30	-10.363	-0.447	-23.002	C.2	1	LIG1	0.000	
16	 N31	-7.159	-0.641	-21.196	N.pl3	1	LIG1	0.000	
17	 C32	-4.788	0.903	-21.515	C.3	1	LIG1	0.000	
18	 C33	-8.550	-2.057	-23.308	C.3	1	LIG1	0.000	
19	 C34	-8.915	-0.703	-22.893	C.3	1	LIG1	0.000	
@<TRIPOS>BOND
1 3 6 ar
2 2 4 2
3 4 19 1
4 3 5 ar
5 6 13 ar
6 7 8 ar
7 8 12 ar
8 5 9 ar
9 7 10 ar
10 1 12 1
11 11 12 ar
12 13 16 1
13 9 14 ar
14 13 14 ar
15 10 15 ar
16 11 15 ar
17 4 16 1
18 14 17 1
19 15 19 1
20 18 19 1
@<TRIPOS>SUBSTRUCTURE
1	LIG1	1	GROUP	1 C	LIG
