# created with PyMOL 3.1.3.1
@<TRIPOS>MOLECULE
predicted
35 40 1                 
SMALL
USER_CHARGES
@<TRIPOS>ATOM
1	 O23	10.930	2.009	24.492	O.2	1	LIG1	0.000	
2	 O24	8.997	0.240	21.522	O.2	1	LIG1	0.000	
3	 N26	6.055	2.590	24.687	N.2	1	LIG1	0.000	
4	 N27	6.485	-0.812	18.024	N.2	1	LIG1	0.000	
5	 N28	5.370	3.172	23.649	N.2	1	LIG1	0.000	
6	 N29	7.426	2.887	23.035	N.2	1	LIG1	0.000	
7	 C30	10.432	0.879	24.334	C.2	1	LIG1	0.000	
8	 C31	8.569	-0.803	21.987	C.2	1	LIG1	0.000	
9	 C32	7.297	2.411	24.301	C.2	1	LIG1	0.000	
10	 C33	7.186	-1.254	19.065	C.2	1	LIG1	0.000	
11	 C34	13.355	-1.251	23.420	C.2	1	LIG1	0.000	
12	 C35	12.611	-0.184	23.844	C.2	1	LIG1	0.000	
13	 C36	11.348	-2.475	22.848	C.2	1	LIG1	0.000	
14	 C37	3.090	0.899	20.992	C.2	1	LIG1	0.000	
15	 C38	3.785	0.428	22.092	C.2	1	LIG1	0.000	
16	 C39	12.744	-2.386	22.927	C.2	1	LIG1	0.000	
17	 C40	11.224	-0.248	23.823	C.2	1	LIG1	0.000	
18	 C41	10.567	-1.423	23.351	C.2	1	LIG1	0.000	
19	 C42	5.312	-0.189	18.212	C.2	1	LIG1	0.000	
20	 C43	3.588	0.692	19.714	C.2	1	LIG1	0.000	
21	 C44	4.976	-0.221	21.922	C.2	1	LIG1	0.000	
22	 C45	6.747	-1.079	20.379	C.2	1	LIG1	0.000	
23	 C46	4.792	0.042	19.511	C.2	1	LIG1	0.000	
24	 C47	5.508	-0.416	20.629	C.2	1	LIG1	0.000	
25	 N48	7.523	-1.502	21.459	N.pl3	1	LIG1	0.000	
26	 N49	9.070	0.694	24.566	N.pl3	1	LIG1	0.000	
27	 N50	6.222	3.368	22.664	N.2	1	LIG1	0.000	
28	 C51	8.336	1.768	25.189	C.3	1	LIG1	0.000	
29	 C52	5.820	3.985	21.475	C.3	1	LIG1	0.000	
30	 C53	8.331	-3.653	24.365	C.3	1	LIG1	0.000	
31	 C54	7.333	-2.754	22.151	C.3	1	LIG1	0.000	
32	 C55	8.442	-0.657	24.479	C.3	1	LIG1	0.000	
33	 C56	8.472	-2.829	23.136	C.3	1	LIG1	0.000	
34	 C57	9.060	-1.449	23.271	C.3	1	LIG1	0.000	
35	 F25	13.510	-3.392	22.518	 F	1	LIG1	0.000	
@<TRIPOS>BOND
1 3 5 ar
2 4 19 ar
3 5 27 ar
4 1 7 2
5 7 17 1
6 2 8 2
7 8 34 1
8 3 9 ar
9 6 9 ar
10 4 10 ar
11 11 16 ar
12 11 12 ar
13 13 18 ar
14 14 15 ar
15 15 21 ar
16 13 16 ar
17 16 35 1
18 12 17 ar
19 17 18 ar
20 19 23 ar
21 14 20 ar
22 21 24 ar
23 10 22 ar
24 22 24 ar
25 20 23 ar
26 23 24 ar
27 8 25 1
28 22 25 1
29 7 26 1
30 26 28 1
31 6 27 ar
32 27 29 1
33 9 28 1
34 30 33 1
35 25 31 1
36 26 32 1
37 31 33 1
38 33 34 1
39 18 34 1
40 32 34 1
@<TRIPOS>SUBSTRUCTURE
1	LIG1	1	GROUP	1 C	LIG
