# created with PyMOL 3.1.3.1
@<TRIPOS>MOLECULE
predicted
36 40 1                 
SMALL
USER_CHARGES
@<TRIPOS>ATOM
1	CL29	13.499	-3.532	22.874	Cl	1	LIG1	0.000	
2	 O25	10.646	2.380	23.701	O.2	1	LIG1	0.000	
3	 O26	7.699	-5.008	23.891	O.2	1	LIG1	0.000	
4	 O27	8.706	3.952	24.764	O.2	1	LIG1	0.000	
5	 O28	8.906	0.381	21.172	O.2	1	LIG1	0.000	
6	 N30	6.491	-0.884	17.753	N.2	1	LIG1	0.000	
7	 C31	10.151	1.278	23.749	C.2	1	LIG1	0.000	
8	 C32	7.533	-4.126	24.707	C.2	1	LIG1	0.000	
9	 C33	8.105	3.464	23.845	C.2	1	LIG1	0.000	
10	 C34	8.453	-0.610	21.717	C.2	1	LIG1	0.000	
11	 C35	7.145	-1.264	18.831	C.2	1	LIG1	0.000	
12	 C36	13.113	-0.979	23.400	C.2	1	LIG1	0.000	
13	 C37	12.365	0.155	23.586	C.2	1	LIG1	0.000	
14	 C38	11.121	-2.245	22.974	C.2	1	LIG1	0.000	
15	 C39	3.156	1.195	20.501	C.2	1	LIG1	0.000	
16	 C40	3.827	0.817	21.646	C.2	1	LIG1	0.000	
17	 C41	12.498	-2.173	23.075	C.2	1	LIG1	0.000	
18	 C42	10.988	0.097	23.515	C.2	1	LIG1	0.000	
19	 C43	10.341	-1.117	23.245	C.2	1	LIG1	0.000	
20	 C44	5.352	-0.216	17.877	C.2	1	LIG1	0.000	
21	 C45	3.660	0.852	19.255	C.2	1	LIG1	0.000	
22	 C46	4.975	0.102	21.556	C.2	1	LIG1	0.000	
23	 C47	6.708	-0.964	20.121	C.2	1	LIG1	0.000	
24	 C48	4.827	0.140	19.132	C.2	1	LIG1	0.000	
25	 C49	5.503	-0.236	20.302	C.2	1	LIG1	0.000	
26	 N50	7.771	4.062	22.689	N.pl3	1	LIG1	0.000	
27	 N51	7.428	-1.331	21.220	N.pl3	1	LIG1	0.000	
28	 N52	8.734	1.123	23.913	N.pl3	1	LIG1	0.000	
29	 N53	7.722	-2.787	24.381	N.pl3	1	LIG1	0.000	
30	 C54	7.105	-4.420	26.104	C.3	1	LIG1	0.000	
31	 C55	8.057	5.407	22.461	C.3	1	LIG1	0.000	
32	 C56	7.721	2.095	23.877	C.3	1	LIG1	0.000	
33	 C57	7.207	-2.502	21.988	C.3	1	LIG1	0.000	
34	 C58	8.210	-0.160	24.135	C.3	1	LIG1	0.000	
35	 C59	8.233	-2.461	23.135	C.3	1	LIG1	0.000	
36	 C60	8.835	-1.120	23.081	C.3	1	LIG1	0.000	
@<TRIPOS>BOND
1 6 20 ar
2 2 7 2
3 3 8 2
4 8 30 1
5 4 9 2
6 9 32 1
7 5 10 2
8 10 27 1
9 6 11 ar
10 12 13 ar
11 13 18 ar
12 14 17 ar
13 15 16 ar
14 16 22 ar
15 1 17 1
16 12 17 ar
17 7 18 1
18 14 19 ar
19 18 19 ar
20 20 24 ar
21 15 21 ar
22 22 25 ar
23 11 23 ar
24 23 25 ar
25 21 24 ar
26 24 25 ar
27 9 26 1
28 23 27 1
29 27 33 1
30 7 28 1
31 28 34 1
32 8 29 1
33 26 31 1
34 28 32 1
35 33 35 1
36 34 36 1
37 29 35 1
38 10 36 1
39 19 36 1
40 35 36 1
@<TRIPOS>SUBSTRUCTURE
1	LIG1	1	GROUP	1 C	LIG
