# created with PyMOL 3.1.3.1
@<TRIPOS>MOLECULE
predicted
24 26 1                 
SMALL
USER_CHARGES
@<TRIPOS>ATOM
1	 O29	8.503	0.401	21.217	O.2	1	LIG1	0.000	
2	 N30	6.376	-0.638	17.842	N.2	1	LIG1	0.000	
3	 C31	8.295	-0.623	21.814	C.2	1	LIG1	0.000	
4	 C32	7.012	-1.181	18.880	C.2	1	LIG1	0.000	
5	 C33	3.121	1.194	20.775	C.2	1	LIG1	0.000	
6	 C34	3.746	0.657	21.837	C.2	1	LIG1	0.000	
7	 C35	5.285	0.036	18.012	C.2	1	LIG1	0.000	
8	 C36	3.614	1.002	19.507	C.2	1	LIG1	0.000	
9	 C37	4.883	-0.061	21.687	C.2	1	LIG1	0.000	
10	 C38	6.573	-1.039	20.160	C.2	1	LIG1	0.000	
11	 C39	4.755	0.263	19.299	C.2	1	LIG1	0.000	
12	 C40	5.407	-0.294	20.420	C.2	1	LIG1	0.000	
13	 N41	8.857	-0.761	22.979	N.pl3	1	LIG1	0.000	
14	 C42	7.358	-1.656	21.260	C.3	1	LIG1	0.000	
15	 C43	14.082	-3.497	24.245	C.3	1	LIG1	0.000	
16	 C44	13.335	-2.547	22.014	C.3	1	LIG1	0.000	
17	 C45	10.978	-0.911	25.756	C.3	1	LIG1	0.000	
18	 C46	8.864	-2.005	23.721	C.3	1	LIG1	0.000	
19	 C47	9.580	0.385	23.531	C.3	1	LIG1	0.000	
20	 C48	10.344	-2.403	23.801	C.3	1	LIG1	0.000	
21	 C49	11.044	0.058	23.471	C.3	1	LIG1	0.000	
22	 C50	12.686	-1.538	24.200	C.3	1	LIG1	0.000	
23	 C51	12.982	-2.807	23.459	C.3	1	LIG1	0.000	
24	 C52	11.285	-1.206	24.326	C.3	1	LIG1	0.000	
@<TRIPOS>BOND
1 2 7 ar
2 1 3 2
3 3 14 1
4 2 4 ar
5 5 6 ar
6 6 9 ar
7 7 11 ar
8 5 8 ar
9 9 12 ar
10 4 10 ar
11 10 12 ar
12 8 11 ar
13 11 12 ar
14 3 13 1
15 13 19 1
16 10 14 1
17 15 23 1
18 13 18 1
19 19 21 1
20 18 20 1
21 22 24 1
22 16 23 1
23 22 23 1
24 17 24 1
25 20 24 1
26 21 24 1
@<TRIPOS>SUBSTRUCTURE
1	LIG1	1	GROUP	1 C	LIG
