# created with PyMOL 3.1.3.1
@<TRIPOS>MOLECULE
predicted
35 37 1                 
SMALL
USER_CHARGES
@<TRIPOS>ATOM
1	 O38	12.109	4.089	24.389	O.2	1	LIG1	0.000	
2	 O39	6.638	1.329	17.102	O.2	1	LIG1	0.000	
3	 O40	9.467	1.981	21.175	O.2	1	LIG1	0.000	
4	 O41	8.013	-0.837	22.597	O.2	1	LIG1	0.000	
5	 C45	11.776	4.551	23.287	C.2	1	LIG1	0.000	
6	 C46	6.104	1.249	18.181	C.2	1	LIG1	0.000	
7	 C47	9.818	1.935	22.330	C.2	1	LIG1	0.000	
8	 C48	8.937	-0.951	21.793	C.2	1	LIG1	0.000	
9	 N49	5.032	1.989	18.564	N.pl3	1	LIG1	0.000	
10	 N50	8.767	-1.438	20.538	N.pl3	1	LIG1	0.000	
11	 N51	10.620	4.178	22.670	N.pl3	1	LIG1	0.000	
12	 N52	10.236	0.776	22.882	N.pl3	1	LIG1	0.000	
13	 C53	12.643	5.559	22.625	C.3	1	LIG1	0.000	
14	 C54	13.268	-2.266	24.109	C.3	1	LIG1	0.000	
15	 C55	13.240	-0.222	22.619	C.3	1	LIG1	0.000	
16	 C56	8.211	4.299	24.819	C.3	1	LIG1	0.000	
17	 C57	7.916	4.722	22.354	C.3	1	LIG1	0.000	
18	 C58	7.321	2.516	23.342	C.3	1	LIG1	0.000	
19	 C59	4.742	1.718	19.920	C.3	1	LIG1	0.000	
20	 C60	5.517	0.594	20.288	C.3	1	LIG1	0.000	
21	 C61	6.996	-0.923	18.906	C.3	1	LIG1	0.000	
22	 C62	10.715	0.586	24.236	C.3	1	LIG1	0.000	
23	 C63	12.498	-1.123	23.454	C.3	1	LIG1	0.000	
24	 C64	8.298	3.659	23.419	C.3	1	LIG1	0.000	
25	 C65	7.419	-3.256	19.583	C.2	1	LIG1	0.000	
26	 C66	6.549	0.402	19.294	C.3	1	LIG1	0.000	
27	 C67	7.405	-1.857	20.099	C.3	1	LIG1	0.000	
28	 C68	11.352	-0.759	24.205	C.3	1	LIG1	0.000	
29	 C69	11.071	-1.393	23.065	C.3	1	LIG1	0.000	
30	 C70	9.774	3.164	23.248	C.3	1	LIG1	0.000	
31	 C71	10.325	-0.441	22.097	C.3	1	LIG1	0.000	
32	 N72	6.715	-4.211	19.670	N.2	1	LIG1	0.000	
33	 F42	13.592	5.939	23.423	 F	1	LIG1	0.000	
34	 F43	11.910	6.626	22.271	 F	1	LIG1	0.000	
35	 F44	13.214	4.983	21.529	 F	1	LIG1	0.000	
@<TRIPOS>BOND
1 1 5 2
2 5 13 1
3 2 6 2
4 3 7 2
5 7 12 1
6 4 8 2
7 8 10 1
8 6 9 1
9 10 27 1
10 5 11 1
11 12 22 1
12 12 31 1
13 13 33 1
14 13 34 1
15 13 35 1
16 16 24 1
17 9 19 1
18 19 20 1
19 21 26 1
20 22 28 1
21 14 23 1
22 15 23 1
23 17 24 1
24 18 24 1
25 24 30 1
26 25 32 2
27 6 26 1
28 20 26 1
29 21 27 1
30 25 27 1
31 23 28 1
32 28 29 1
33 23 29 1
34 29 31 1
35 7 30 1
36 11 30 1
37 8 31 1
@<TRIPOS>SUBSTRUCTURE
1	LIG1	1	GROUP	1 C	LIG
