# created with PyMOL 3.1.3.1
@<TRIPOS>MOLECULE
predicted
36 41 1                 
SMALL
USER_CHARGES
@<TRIPOS>ATOM
1	CL33	13.688	-3.419	22.070	Cl	1	LIG1	0.000	
2	 O31	10.991	2.201	24.519	O.2	1	LIG1	0.000	
3	 O32	8.970	0.464	21.548	O.2	1	LIG1	0.000	
4	 N34	6.576	-0.723	18.010	N.2	1	LIG1	0.000	
5	 O35	6.618	6.445	22.578	O.3	1	LIG1	0.000	
6	 C36	10.479	1.083	24.324	C.2	1	LIG1	0.000	
7	 C37	8.568	-0.596	22.012	C.2	1	LIG1	0.000	
8	 C38	7.253	-1.162	19.070	C.2	1	LIG1	0.000	
9	 C39	13.369	-0.991	23.199	C.2	1	LIG1	0.000	
10	 C40	12.645	0.041	23.712	C.2	1	LIG1	0.000	
11	 C41	11.318	-2.202	22.700	C.2	1	LIG1	0.000	
12	 C42	3.274	1.275	20.925	C.2	1	LIG1	0.000	
13	 C43	3.953	0.809	22.044	C.2	1	LIG1	0.000	
14	 C44	12.721	-2.105	22.680	C.2	1	LIG1	0.000	
15	 C45	11.264	-0.038	23.760	C.2	1	LIG1	0.000	
16	 C46	10.593	-1.195	23.320	C.2	1	LIG1	0.000	
17	 C47	5.432	-0.045	18.184	C.2	1	LIG1	0.000	
18	 C48	3.760	0.988	19.645	C.2	1	LIG1	0.000	
19	 C49	5.094	0.087	21.887	C.2	1	LIG1	0.000	
20	 C50	6.813	-0.940	20.383	C.2	1	LIG1	0.000	
21	 C51	4.922	0.256	19.461	C.2	1	LIG1	0.000	
22	 C52	5.612	-0.194	20.610	C.2	1	LIG1	0.000	
23	 N53	7.582	-1.343	21.478	N.pl3	1	LIG1	0.000	
24	 N54	9.107	0.932	24.508	N.pl3	1	LIG1	0.000	
25	 C55	5.506	5.458	22.690	C.3	1	LIG1	0.000	
26	 C56	7.488	6.296	23.797	C.3	1	LIG1	0.000	
27	 C57	8.303	2.034	24.930	C.3	1	LIG1	0.000	
28	 C58	8.458	-3.368	24.459	C.3	1	LIG1	0.000	
29	 C59	7.417	-2.573	22.179	C.3	1	LIG1	0.000	
30	 C60	8.527	-0.381	24.496	C.3	1	LIG1	0.000	
31	 C61	6.136	4.106	22.574	C.3	1	LIG1	0.000	
32	 C62	8.150	4.929	23.746	C.3	1	LIG1	0.000	
33	 C63	7.652	2.578	23.634	C.3	1	LIG1	0.000	
34	 C64	8.506	-2.593	23.218	C.3	1	LIG1	0.000	
35	 C65	9.092	-1.214	23.303	C.3	1	LIG1	0.000	
36	 N66	7.085	3.881	23.743	N.3	1	LIG1	0.000	
@<TRIPOS>BOND
1 4 17 ar
2 5 26 1
3 2 6 2
4 6 15 1
5 3 7 2
6 7 35 1
7 4 8 ar
8 9 14 ar
9 9 10 ar
10 11 16 ar
11 12 13 ar
12 13 19 ar
13 1 14 1
14 11 14 ar
15 10 15 ar
16 15 16 ar
17 17 21 ar
18 12 18 ar
19 19 22 ar
20 8 20 ar
21 20 22 ar
22 18 21 ar
23 21 22 ar
24 7 23 1
25 20 23 1
26 6 24 1
27 24 27 1
28 5 25 1
29 26 32 1
30 27 33 1
31 28 34 1
32 23 29 1
33 24 30 1
34 25 31 1
35 33 36 1
36 29 34 1
37 34 35 1
38 16 35 1
39 30 35 1
40 31 36 1
41 32 36 1
@<TRIPOS>SUBSTRUCTURE
1	LIG1	1	GROUP	1 C	LIG
