# created with PyMOL 3.1.3.1
@<TRIPOS>MOLECULE
predicted
27 31 1                 
SMALL
USER_CHARGES
@<TRIPOS>ATOM
1	 O19	6.077	-3.514	21.580	O.2	1	LIG1	0.000	
2	 O20	8.929	-0.033	21.209	O.2	1	LIG1	0.000	
3	 O21	11.546	-1.054	25.730	O.2	1	LIG1	0.000	
4	 O22	12.637	0.281	24.049	O.2	1	LIG1	0.000	
5	 N23	6.369	-0.546	17.739	N.2	1	LIG1	0.000	
6	 C24	7.008	-2.775	21.805	C.2	1	LIG1	0.000	
7	 C25	8.421	-1.082	21.625	C.2	1	LIG1	0.000	
8	 C26	7.020	-1.089	18.739	C.2	1	LIG1	0.000	
9	 C27	3.080	1.097	20.788	C.2	1	LIG1	0.000	
10	 C28	3.718	0.497	21.842	C.2	1	LIG1	0.000	
11	 C29	5.235	0.102	17.975	C.2	1	LIG1	0.000	
12	 C30	3.567	0.991	19.518	C.2	1	LIG1	0.000	
13	 C31	4.844	-0.215	21.633	C.2	1	LIG1	0.000	
14	 C32	6.540	-1.100	20.035	C.2	1	LIG1	0.000	
15	 C33	4.711	0.256	19.270	C.2	1	LIG1	0.000	
16	 C34	5.373	-0.343	20.331	C.2	1	LIG1	0.000	
17	 N35	7.271	-1.641	21.107	N.pl3	1	LIG1	0.000	
18	 N36	7.939	-2.955	22.764	N.pl3	1	LIG1	0.000	
19	 N37	10.745	-1.040	23.382	N.3	1	LIG1	0.000	
20	 C38	7.941	-4.051	23.717	C.3	1	LIG1	0.000	
21	 C39	9.234	-1.160	23.949	C.3	1	LIG1	0.000	
22	 C40	10.304	-2.340	22.609	C.3	1	LIG1	0.000	
23	 C41	13.049	-3.359	23.329	C.3	1	LIG1	0.000	
24	 C42	13.618	-2.257	22.585	C.3	1	LIG1	0.000	
25	 C43	8.883	-1.938	22.713	C.3	1	LIG1	0.000	
26	 C44	13.140	-2.197	24.105	C.3	1	LIG1	0.000	
27	 S45	12.001	-0.940	24.371	S.O2	1	LIG1	0.000	
@<TRIPOS>BOND
1 5 11 ar
2 1 6 2
3 6 17 1
4 2 7 2
5 7 25 1
6 5 8 ar
7 9 10 ar
8 10 13 ar
9 11 15 ar
10 9 12 ar
11 13 16 ar
12 8 14 ar
13 14 16 ar
14 12 15 ar
15 15 16 ar
16 7 17 1
17 14 17 1
18 6 18 1
19 18 25 1
20 19 22 1
21 19 27 1
22 18 20 1
23 19 21 1
24 23 24 1
25 21 25 1
26 22 25 1
27 23 26 1
28 24 26 1
29 3 27 2
30 4 27 2
31 26 27 1
@<TRIPOS>SUBSTRUCTURE
1	LIG1	1	GROUP	1 C	LIG
