# created with PyMOL 3.1.3.1
@<TRIPOS>MOLECULE
predicted
21 23 1                 
SMALL
USER_CHARGES
@<TRIPOS>ATOM
1	 O17	8.668	1.158	21.411	O.2	1	LIG1	0.000	
2	 N18	11.593	1.601	24.040	N.2	1	LIG1	0.000	
3	 N19	10.315	1.334	24.024	N.2	1	LIG1	0.000	
4	 O20	6.555	0.587	17.287	O.3	1	LIG1	0.000	
5	 C21	8.187	0.182	21.957	C.2	1	LIG1	0.000	
6	 C22	5.379	1.220	17.486	C.3	1	LIG1	0.000	
7	 C23	6.957	0.022	18.462	C.3	1	LIG1	0.000	
8	 C24	4.954	1.072	18.814	C.3	1	LIG1	0.000	
9	 C25	13.882	-0.742	22.334	C.2	1	LIG1	0.000	
10	 C26	12.925	-1.617	21.897	C.2	1	LIG1	0.000	
11	 C27	5.882	0.082	19.432	C.3	1	LIG1	0.000	
12	 C28	13.569	0.402	23.068	C.2	1	LIG1	0.000	
13	 C29	11.609	-1.389	22.195	C.2	1	LIG1	0.000	
14	 C30	12.248	0.627	23.385	C.2	1	LIG1	0.000	
15	 C31	11.281	-0.279	22.947	C.2	1	LIG1	0.000	
16	 N32	7.068	-0.438	21.532	N.pl3	1	LIG1	0.000	
17	 N33	10.119	0.197	23.383	N.2	1	LIG1	0.000	
18	 C34	6.077	0.325	20.840	C.3	1	LIG1	0.000	
19	 C35	8.817	-0.374	23.181	C.3	1	LIG1	0.000	
20	 C36	7.394	-2.807	20.856	C.3	1	LIG1	0.000	
21	 C37	6.771	-1.855	21.852	C.3	1	LIG1	0.000	
@<TRIPOS>BOND
1 2 14 ar
2 2 3 ar
3 4 7 1
4 1 5 2
5 5 19 1
6 4 6 1
7 6 8 1
8 9 10 ar
9 10 13 ar
10 7 11 1
11 8 11 1
12 9 12 ar
13 13 15 ar
14 12 14 ar
15 14 15 ar
16 5 16 1
17 16 18 1
18 3 17 ar
19 15 17 ar
20 11 18 1
21 17 19 1
22 20 21 1
23 16 21 1
@<TRIPOS>SUBSTRUCTURE
1	LIG1	1	GROUP	1 C	LIG
