# created with PyMOL 3.1.3.1
@<TRIPOS>MOLECULE
predicted
20 21 1                 
SMALL
USER_CHARGES
@<TRIPOS>ATOM
1	 O15	6.289	-4.635	20.090	O.2	1	LIG1	0.000	
2	 O16	8.364	0.109	25.284	O.2	1	LIG1	0.000	
3	 O17	8.325	-2.022	26.290	O.2	1	LIG1	0.000	
4	 C20	6.809	-3.543	20.204	C.2	1	LIG1	0.000	
5	 C21	13.158	-1.757	24.182	C.3	1	LIG1	0.000	
6	 C22	12.510	-0.590	23.884	C.3	1	LIG1	0.000	
7	 C23	12.430	-2.772	24.766	C.3	1	LIG1	0.000	
8	 C24	11.157	-0.437	24.189	C.3	1	LIG1	0.000	
9	 C25	11.069	-2.624	25.072	C.3	1	LIG1	0.000	
10	 C26	10.441	-1.446	24.808	C.3	1	LIG1	0.000	
11	 N27	6.882	-2.968	21.448	N.pl3	1	LIG1	0.000	
12	 N28	8.008	-1.902	23.757	N.3	1	LIG1	0.000	
13	 C29	7.331	-2.818	19.009	C.3	1	LIG1	0.000	
14	 C30	6.835	-3.735	22.674	C.3	1	LIG1	0.000	
15	 C31	7.015	-1.503	21.589	C.3	1	LIG1	0.000	
16	 C32	8.032	-3.326	23.564	C.3	1	LIG1	0.000	
17	 C33	8.191	-1.169	22.517	C.3	1	LIG1	0.000	
18	 S34	8.736	-1.276	25.102	S.O2	1	LIG1	0.000	
19	 F18	10.561	0.724	23.840	 F	1	LIG1	0.000	
20	 F19	10.363	-3.634	25.609	 F	1	LIG1	0.000	
@<TRIPOS>BOND
1 1 4 2
2 4 11 1
3 5 7 1
4 5 6 1
5 7 9 1
6 6 8 1
7 8 19 1
8 9 20 1
9 8 10 1
10 9 10 1
11 11 14 1
12 11 15 1
13 12 17 1
14 12 18 1
15 4 13 1
16 14 16 1
17 12 16 1
18 15 17 1
19 2 18 2
20 3 18 2
21 10 18 1
@<TRIPOS>SUBSTRUCTURE
1	LIG1	1	GROUP	1 C	LIG
