# created with PyMOL 3.1.3.1
@<TRIPOS>MOLECULE
predicted
25 28 1                 
SMALL
USER_CHARGES
@<TRIPOS>ATOM
1	 O23	8.433	0.103	21.023	O.2	1	LIG1	0.000	
2	 N26	6.158	-0.736	17.565	N.2	1	LIG1	0.000	
3	 C27	8.197	-1.013	21.535	C.2	1	LIG1	0.000	
4	 C28	6.774	-1.333	18.586	C.2	1	LIG1	0.000	
5	 C29	3.046	1.269	20.519	C.2	1	LIG1	0.000	
6	 C30	3.653	0.698	21.579	C.2	1	LIG1	0.000	
7	 C31	5.108	-0.003	17.751	C.2	1	LIG1	0.000	
8	 C32	3.506	1.051	19.248	C.2	1	LIG1	0.000	
9	 C33	4.755	-0.089	21.425	C.2	1	LIG1	0.000	
10	 C34	6.360	-1.169	19.879	C.2	1	LIG1	0.000	
11	 C35	4.612	0.252	19.037	C.2	1	LIG1	0.000	
12	 C36	5.251	-0.343	20.145	C.2	1	LIG1	0.000	
13	 N37	8.792	-1.617	22.635	N.pl3	1	LIG1	0.000	
14	 C38	7.119	-1.848	20.971	C.3	1	LIG1	0.000	
15	 C39	8.647	-1.154	23.950	C.3	1	LIG1	0.000	
16	 C40	13.470	-1.772	23.930	C.3	1	LIG1	0.000	
17	 C41	13.327	-2.760	22.826	C.3	1	LIG1	0.000	
18	 C42	9.529	-2.812	22.546	C.3	1	LIG1	0.000	
19	 C43	9.952	-0.475	24.241	C.3	1	LIG1	0.000	
20	 C44	12.363	-0.958	24.241	C.3	1	LIG1	0.000	
21	 C45	11.958	-3.191	22.588	C.3	1	LIG1	0.000	
22	 C46	11.100	-1.337	23.886	C.3	1	LIG1	0.000	
23	 C47	10.941	-2.419	22.981	C.3	1	LIG1	0.000	
24	 F24	13.808	-2.207	21.679	 F	1	LIG1	0.000	
25	 F25	14.114	-3.756	23.210	 F	1	LIG1	0.000	
@<TRIPOS>BOND
1 1 3 2
2 2 7 ar
3 3 13 1
4 3 14 1
5 2 4 ar
6 5 6 ar
7 6 9 ar
8 7 11 ar
9 5 8 ar
10 9 12 ar
11 4 10 ar
12 10 12 ar
13 8 11 ar
14 11 12 ar
15 13 15 1
16 13 18 1
17 10 14 1
18 15 19 1
19 16 17 1
20 17 21 1
21 17 24 1
22 17 25 1
23 19 22 1
24 16 20 1
25 21 23 1
26 20 22 1
27 22 23 1
28 18 23 1
@<TRIPOS>SUBSTRUCTURE
1	LIG1	1	GROUP	1 C	LIG
