# created with PyMOL 3.1.3.1
@<TRIPOS>MOLECULE
predicted
26 29 1                 
SMALL
USER_CHARGES
@<TRIPOS>ATOM
1	CL19	13.702	-2.784	22.610	Cl	1	LIG1	0.000	
2	 O17	9.148	1.098	25.579	O.2	1	LIG1	0.000	
3	 O18	8.678	-0.301	21.652	O.2	1	LIG1	0.000	
4	 N20	6.524	-0.600	17.971	N.2	1	LIG1	0.000	
5	 C21	9.076	-0.002	25.042	C.2	1	LIG1	0.000	
6	 C22	8.141	-1.325	22.010	C.2	1	LIG1	0.000	
7	 C23	7.059	-1.212	19.010	C.2	1	LIG1	0.000	
8	 C24	12.598	-0.864	24.118	C.2	1	LIG1	0.000	
9	 C25	11.546	-0.222	24.688	C.2	1	LIG1	0.000	
10	 C26	11.093	-2.360	22.968	C.2	1	LIG1	0.000	
11	 C27	3.119	1.140	20.798	C.2	1	LIG1	0.000	
12	 C28	3.667	0.515	21.882	C.2	1	LIG1	0.000	
13	 C29	12.372	-1.934	23.264	C.2	1	LIG1	0.000	
14	 C30	10.243	-0.637	24.419	C.2	1	LIG1	0.000	
15	 C31	10.017	-1.748	23.584	C.2	1	LIG1	0.000	
16	 C32	5.419	0.117	18.100	C.2	1	LIG1	0.000	
17	 C33	3.683	1.027	19.540	C.2	1	LIG1	0.000	
18	 C34	4.776	-0.235	21.745	C.2	1	LIG1	0.000	
19	 C35	6.510	-1.145	20.281	C.2	1	LIG1	0.000	
20	 C36	4.813	0.260	19.371	C.2	1	LIG1	0.000	
21	 C37	5.362	-0.377	20.484	C.2	1	LIG1	0.000	
22	 N38	7.082	-1.835	21.372	N.pl3	1	LIG1	0.000	
23	 N39	7.839	-0.603	24.949	N.pl3	1	LIG1	0.000	
24	 C40	6.693	0.011	25.581	C.3	1	LIG1	0.000	
25	 C41	7.706	-1.944	24.384	C.3	1	LIG1	0.000	
26	 C42	8.632	-2.166	23.205	C.3	1	LIG1	0.000	
@<TRIPOS>BOND
1 4 16 ar
2 2 5 2
3 3 6 2
4 6 22 1
5 4 7 ar
6 8 9 ar
7 9 14 ar
8 10 13 ar
9 11 12 ar
10 12 18 ar
11 1 13 1
12 8 13 ar
13 5 14 1
14 10 15 ar
15 14 15 ar
16 16 20 ar
17 11 17 ar
18 18 21 ar
19 7 19 ar
20 19 21 ar
21 17 20 ar
22 20 21 ar
23 19 22 1
24 5 23 1
25 23 25 1
26 23 24 1
27 25 26 1
28 6 26 1
29 15 26 1
@<TRIPOS>SUBSTRUCTURE
1	LIG1	1	GROUP	1 C	LIG
