# created with PyMOL 3.1.3.1
@<TRIPOS>MOLECULE
predicted
21 23 1                 
SMALL
USER_CHARGES
@<TRIPOS>ATOM
1	 O23	8.856	0.381	21.210	O.2	1	LIG1	0.000	
2	 N24	6.475	-0.704	17.824	N.2	1	LIG1	0.000	
3	 C25	8.732	-0.688	21.745	C.2	1	LIG1	0.000	
4	 C26	7.182	-1.231	18.839	C.2	1	LIG1	0.000	
5	 C27	3.382	1.197	20.884	C.2	1	LIG1	0.000	
6	 C28	4.082	0.693	21.936	C.2	1	LIG1	0.000	
7	 C29	5.397	-0.024	18.043	C.2	1	LIG1	0.000	
8	 C30	3.800	0.977	19.586	C.2	1	LIG1	0.000	
9	 C31	5.221	-0.029	21.738	C.2	1	LIG1	0.000	
10	 C32	6.823	-1.065	20.121	C.2	1	LIG1	0.000	
11	 C33	4.944	0.235	19.337	C.2	1	LIG1	0.000	
12	 C34	5.668	-0.292	20.441	C.2	1	LIG1	0.000	
13	 N35	9.533	-0.949	22.812	N.pl3	1	LIG1	0.000	
14	 C36	7.690	-1.668	21.240	C.3	1	LIG1	0.000	
15	 C37	13.274	-2.347	22.628	C.3	1	LIG1	0.000	
16	 C38	12.699	-1.623	24.940	C.3	1	LIG1	0.000	
17	 C39	10.472	0.094	23.260	C.3	1	LIG1	0.000	
18	 C40	9.567	-2.214	23.502	C.3	1	LIG1	0.000	
19	 C41	11.859	-0.356	22.950	C.3	1	LIG1	0.000	
20	 C42	10.979	-2.794	23.340	C.3	1	LIG1	0.000	
21	 C43	12.203	-1.766	23.506	C.3	1	LIG1	0.000	
@<TRIPOS>BOND
1 2 7 ar
2 1 3 2
3 3 14 1
4 2 4 ar
5 5 6 ar
6 6 9 ar
7 7 11 ar
8 5 8 ar
9 9 12 ar
10 4 10 ar
11 10 12 ar
12 8 11 ar
13 11 12 ar
14 3 13 1
15 13 18 1
16 10 14 1
17 15 21 1
18 13 17 1
19 18 20 1
20 17 19 1
21 16 21 1
22 19 21 1
23 20 21 1
@<TRIPOS>SUBSTRUCTURE
1	LIG1	1	GROUP	1 C	LIG
