# created with PyMOL 3.1.3.1
@<TRIPOS>MOLECULE
predicted
37 41 1                 
SMALL
USER_CHARGES
@<TRIPOS>ATOM
1	CL31	13.418	-3.154	21.013	Cl	1	LIG1	0.000	
2	 O28	8.554	0.278	21.258	O.2	1	LIG1	0.000	
3	 O29	6.015	-6.689	20.425	O.2	1	LIG1	0.000	
4	 N32	6.358	-0.585	17.730	N.2	1	LIG1	0.000	
5	 C33	7.948	-0.650	21.808	C.2	1	LIG1	0.000	
6	 C34	6.256	-5.734	21.062	C.2	1	LIG1	0.000	
7	 C35	6.740	-1.003	18.930	C.2	1	LIG1	0.000	
8	 C36	12.373	-2.844	24.840	C.2	1	LIG1	0.000	
9	 C37	13.048	-3.202	23.686	C.2	1	LIG1	0.000	
10	 C38	7.284	-2.328	24.714	C.2	1	LIG1	0.000	
11	 C39	7.692	-3.579	22.707	C.2	1	LIG1	0.000	
12	 C40	11.240	-2.053	24.723	C.2	1	LIG1	0.000	
13	 C41	11.458	-1.971	22.355	C.2	1	LIG1	0.000	
14	 C42	6.601	-3.414	25.268	C.2	1	LIG1	0.000	
15	 C43	3.214	1.524	20.956	C.2	1	LIG1	0.000	
16	 C44	2.848	1.941	19.716	C.2	1	LIG1	0.000	
17	 C45	12.597	-2.760	22.450	C.2	1	LIG1	0.000	
18	 C46	7.796	-2.407	23.437	C.2	1	LIG1	0.000	
19	 C47	6.972	-4.649	23.180	C.2	1	LIG1	0.000	
20	 C48	10.811	-1.596	23.491	C.2	1	LIG1	0.000	
21	 C49	6.466	-4.599	24.532	C.2	1	LIG1	0.000	
22	 C50	5.351	0.198	17.611	C.2	1	LIG1	0.000	
23	 C51	4.285	0.692	21.135	C.2	1	LIG1	0.000	
24	 C52	3.543	1.521	18.619	C.2	1	LIG1	0.000	
25	 C53	6.121	-0.620	20.117	C.2	1	LIG1	0.000	
26	 C54	4.624	0.665	18.732	C.2	1	LIG1	0.000	
27	 C55	5.008	0.229	20.012	C.2	1	LIG1	0.000	
28	 N56	8.443	-1.277	22.867	N.pl3	1	LIG1	0.000	
29	 N57	6.710	-5.786	22.370	N.pl3	1	LIG1	0.000	
30	 C58	6.573	-1.108	21.413	C.3	1	LIG1	0.000	
31	 C59	9.607	-0.703	23.454	C.3	1	LIG1	0.000	
32	 C60	6.384	-4.335	18.949	C.3	1	LIG1	0.000	
33	 C61	6.033	-4.417	20.393	C.3	1	LIG1	0.000	
34	 C62	5.876	-5.793	25.135	C.3	1	LIG1	0.000	
35	 C63	6.760	-7.042	23.077	C.3	1	LIG1	0.000	
36	 C64	5.702	-6.948	24.216	C.3	1	LIG1	0.000	
37	 F30	3.156	1.951	17.409	 F	1	LIG1	0.000	
@<TRIPOS>BOND
1 4 22 ar
2 2 5 2
3 5 30 1
4 3 6 2
5 6 29 1
6 4 7 ar
7 8 9 ar
8 9 17 ar
9 10 18 ar
10 11 19 ar
11 8 12 ar
12 10 14 ar
13 15 23 ar
14 15 16 ar
15 1 17 1
16 13 17 ar
17 11 18 ar
18 18 28 1
19 12 20 ar
20 13 20 ar
21 14 21 ar
22 19 21 ar
23 22 26 ar
24 23 27 ar
25 16 24 ar
26 24 37 1
27 7 25 ar
28 25 27 ar
29 24 26 ar
30 26 27 ar
31 5 28 1
32 28 31 1
33 19 29 1
34 29 35 1
35 25 30 1
36 20 31 1
37 32 33 1
38 6 33 1
39 21 34 1
40 35 36 1
41 34 36 1
@<TRIPOS>SUBSTRUCTURE
1	LIG1	1	GROUP	1 C	LIG
