# created with PyMOL 3.1.3.1
@<TRIPOS>MOLECULE
predicted
16 17 1                 
SMALL
USER_CHARGES
@<TRIPOS>ATOM
1	 O15	5.958	-4.611	19.531	O.3	1	LIG1	0.000	
2	 O16	6.549	-3.380	26.785	O.2	1	LIG1	0.000	
3	 C17	6.779	-3.774	19.842	C.3	1	LIG1	0.000	
4	 C18	7.639	-3.966	26.680	C.2	1	LIG1	0.000	
5	 C19	5.447	-5.953	23.337	C.2	1	LIG1	0.000	
6	 C20	5.755	-5.233	22.193	C.2	1	LIG1	0.000	
7	 C21	6.191	-5.766	24.474	C.2	1	LIG1	0.000	
8	 C22	7.588	-4.170	23.334	C.2	1	LIG1	0.000	
9	 C23	6.825	-4.360	22.207	C.2	1	LIG1	0.000	
10	 C24	7.249	-4.887	24.444	C.2	1	LIG1	0.000	
11	 N25	7.184	-3.595	21.088	N.pl3	1	LIG1	0.000	
12	 N26	8.014	-4.698	25.591	N.2	1	LIG1	0.000	
13	 C27	7.387	-2.825	18.820	C.3	1	LIG1	0.000	
14	 C28	8.732	-3.967	27.709	C.2	1	LIG1	0.000	
15	 C29	9.280	-5.243	25.791	C.2	1	LIG1	0.000	
16	 C30	9.765	-4.819	27.113	C.2	1	LIG1	0.000	
@<TRIPOS>BOND
1 1 3 1
2 3 11 1
3 2 4 2
4 5 7 ar
5 5 6 ar
6 7 10 ar
7 6 9 ar
8 8 9 ar
9 8 10 ar
10 10 12 1
11 9 11 1
12 4 12 ar
13 12 15 ar
14 3 13 1
15 4 14 ar
16 15 16 ar
17 14 16 ar
@<TRIPOS>SUBSTRUCTURE
1	LIG1	1	GROUP	1 C	LIG
