# created with PyMOL 3.1.3.1
@<TRIPOS>MOLECULE
predicted
20 22 1                 
SMALL
USER_CHARGES
@<TRIPOS>ATOM
1	 O17	9.107	0.435	21.359	O.2	1	LIG1	0.000	
2	 N18	6.682	-0.689	17.903	N.2	1	LIG1	0.000	
3	 C19	9.032	-0.690	21.832	C.2	1	LIG1	0.000	
4	 C20	12.746	-2.251	23.375	C.3	1	LIG1	0.000	
5	 C21	12.941	-0.832	23.502	C.3	1	LIG1	0.000	
6	 C22	11.482	-2.819	22.733	C.3	1	LIG1	0.000	
7	 C23	11.875	0.221	23.507	C.3	1	LIG1	0.000	
8	 C24	7.426	-1.199	18.877	C.2	1	LIG1	0.000	
9	 C25	3.620	1.120	21.076	C.2	1	LIG1	0.000	
10	 C26	4.365	0.622	22.101	C.2	1	LIG1	0.000	
11	 C27	5.585	-0.042	18.148	C.2	1	LIG1	0.000	
12	 C28	4.004	0.918	19.769	C.2	1	LIG1	0.000	
13	 C29	5.523	-0.071	21.860	C.2	1	LIG1	0.000	
14	 C30	7.128	-1.037	20.219	C.2	1	LIG1	0.000	
15	 C31	5.154	0.208	19.469	C.2	1	LIG1	0.000	
16	 C32	5.924	-0.310	20.550	C.2	1	LIG1	0.000	
17	 N33	9.825	-1.043	22.938	N.pl3	1	LIG1	0.000	
18	 C34	8.035	-1.648	21.267	C.3	1	LIG1	0.000	
19	 C35	10.114	-2.379	23.346	C.3	1	LIG1	0.000	
20	 C36	10.415	-0.077	23.813	C.3	1	LIG1	0.000	
@<TRIPOS>BOND
1 1 3 2
2 2 11 ar
3 3 17 1
4 3 18 1
5 4 5 1
6 5 7 1
7 4 6 1
8 7 20 1
9 2 8 ar
10 9 10 ar
11 10 13 ar
12 11 15 ar
13 9 12 ar
14 13 16 ar
15 8 14 ar
16 14 16 ar
17 12 15 ar
18 15 16 ar
19 17 19 1
20 17 20 1
21 14 18 1
22 6 19 1
@<TRIPOS>SUBSTRUCTURE
1	LIG1	1	GROUP	1 C	LIG
