# created with PyMOL 3.1.3.1
@<TRIPOS>MOLECULE
predicted
22 24 1                 
SMALL
USER_CHARGES
@<TRIPOS>ATOM
1	 O18	9.071	1.390	21.192	O.2	1	LIG1	0.000	
2	 N19	6.830	0.341	17.734	N.2	1	LIG1	0.000	
3	 C20	8.572	0.486	21.764	C.2	1	LIG1	0.000	
4	 C21	5.670	0.942	17.793	C.2	1	LIG1	0.000	
5	 C22	7.454	-0.047	18.861	C.2	1	LIG1	0.000	
6	 C23	5.056	1.253	18.992	C.2	1	LIG1	0.000	
7	 C24	12.860	4.090	23.404	C.2	1	LIG1	0.000	
8	 C25	14.176	3.841	23.099	C.2	1	LIG1	0.000	
9	 C26	11.971	-0.597	22.846	C.2	1	LIG1	0.000	
10	 C27	6.891	0.207	20.103	C.2	1	LIG1	0.000	
11	 C28	5.672	0.860	20.143	C.2	1	LIG1	0.000	
12	 C29	11.958	3.072	23.431	C.2	1	LIG1	0.000	
13	 C30	11.462	0.649	23.163	C.2	1	LIG1	0.000	
14	 C31	14.609	2.567	22.789	C.2	1	LIG1	0.000	
15	 C32	13.276	-0.776	22.507	C.2	1	LIG1	0.000	
16	 C33	12.365	1.740	23.162	C.2	1	LIG1	0.000	
17	 C34	13.686	1.512	22.805	C.2	1	LIG1	0.000	
18	 N35	7.527	-0.199	21.293	N.pl3	1	LIG1	0.000	
19	 N36	10.128	0.880	23.531	N.pl3	1	LIG1	0.000	
20	 N37	14.122	0.236	22.491	N.2	1	LIG1	0.000	
21	 C38	5.059	1.198	21.461	C.3	1	LIG1	0.000	
22	 C39	9.123	0.001	23.117	C.3	1	LIG1	0.000	
@<TRIPOS>BOND
1 2 5 ar
2 1 3 2
3 3 22 1
4 2 4 ar
5 5 10 ar
6 4 6 ar
7 7 12 ar
8 7 8 ar
9 9 15 ar
10 10 18 1
11 6 11 ar
12 10 11 ar
13 12 16 ar
14 9 13 ar
15 13 16 ar
16 8 14 ar
17 15 20 ar
18 14 17 ar
19 16 17 ar
20 3 18 1
21 13 19 1
22 17 20 ar
23 11 21 1
24 19 22 1
@<TRIPOS>SUBSTRUCTURE
1	LIG1	1	GROUP	1 C	LIG
