# created with PyMOL 3.1.3.1
@<TRIPOS>MOLECULE
predicted
35 40 1                 
SMALL
USER_CHARGES
@<TRIPOS>ATOM
1	CL28	13.896	-1.613	21.286	Cl	1	LIG1	0.000	
2	 N24	6.429	-4.214	26.865	N.1	1	LIG1	0.000	
3	 O25	9.159	1.300	21.594	O.2	1	LIG1	0.000	
4	 O26	8.334	0.426	27.898	O.2	1	LIG1	0.000	
5	 O27	7.163	-0.990	26.390	O.2	1	LIG1	0.000	
6	 C29	7.413	-3.652	26.993	C.1	1	LIG1	0.000	
7	 N30	6.738	0.186	17.944	N.2	1	LIG1	0.000	
8	 C31	8.761	0.216	21.981	C.2	1	LIG1	0.000	
9	 C32	7.425	-0.262	18.982	C.2	1	LIG1	0.000	
10	 C33	13.494	-0.180	23.554	C.2	1	LIG1	0.000	
11	 C34	12.719	0.369	24.544	C.2	1	LIG1	0.000	
12	 C35	11.520	-0.953	22.403	C.2	1	LIG1	0.000	
13	 C36	3.385	1.934	20.933	C.2	1	LIG1	0.000	
14	 C37	4.072	1.461	22.026	C.2	1	LIG1	0.000	
15	 C38	12.895	-0.852	22.486	C.2	1	LIG1	0.000	
16	 C39	11.327	0.247	24.463	C.2	1	LIG1	0.000	
17	 C40	10.718	-0.373	23.364	C.2	1	LIG1	0.000	
18	 C41	5.566	0.826	18.128	C.2	1	LIG1	0.000	
19	 C42	3.866	1.739	19.644	C.2	1	LIG1	0.000	
20	 C43	5.249	0.798	21.855	C.2	1	LIG1	0.000	
21	 C44	7.002	-0.074	20.311	C.2	1	LIG1	0.000	
22	 C45	5.054	1.063	19.434	C.2	1	LIG1	0.000	
23	 C46	5.763	0.591	20.554	C.2	1	LIG1	0.000	
24	 N47	7.760	-0.531	21.412	N.pl3	1	LIG1	0.000	
25	 N48	9.313	-0.089	25.664	N.3	1	LIG1	0.000	
26	 C49	10.521	0.737	25.645	C.3	1	LIG1	0.000	
27	 C50	7.618	-1.826	22.076	C.3	1	LIG1	0.000	
28	 C51	9.612	-4.583	27.458	C.3	1	LIG1	0.000	
29	 C52	9.615	-4.158	26.054	C.3	1	LIG1	0.000	
30	 C53	8.861	-3.461	27.041	C.3	1	LIG1	0.000	
31	 C54	8.591	0.287	24.400	C.3	1	LIG1	0.000	
32	 C55	8.686	-1.852	23.149	C.3	1	LIG1	0.000	
33	 C56	9.259	-2.038	27.578	C.3	1	LIG1	0.000	
34	 C57	9.236	-0.439	23.255	C.3	1	LIG1	0.000	
35	 S58	8.433	-0.604	26.916	S.O2	1	LIG1	0.000	
@<TRIPOS>BOND
1 2 6 3
2 6 30 1
3 7 18 ar
4 3 8 2
5 7 9 ar
6 10 15 ar
7 10 11 ar
8 12 17 ar
9 13 14 ar
10 14 20 ar
11 1 15 1
12 12 15 ar
13 11 16 ar
14 16 17 ar
15 17 34 1
16 18 22 ar
17 13 19 ar
18 20 23 ar
19 9 21 ar
20 21 23 ar
21 19 22 ar
22 22 23 ar
23 8 24 1
24 21 24 1
25 25 26 1
26 25 31 1
27 16 26 1
28 24 27 1
29 28 29 1
30 28 30 1
31 29 30 1
32 30 33 1
33 27 32 1
34 33 35 1
35 8 34 1
36 31 34 1
37 32 34 1
38 4 35 2
39 5 35 2
40 25 35 1
@<TRIPOS>SUBSTRUCTURE
1	LIG1	1	GROUP	1 C	LIG
