# created with PyMOL 3.1.3.1
@<TRIPOS>MOLECULE
predicted
26 29 1                 
SMALL
USER_CHARGES
@<TRIPOS>ATOM
1	 O25	8.431	-0.098	21.485	O.2	1	LIG1	0.000	
2	 N26	6.458	-0.614	17.661	N.2	1	LIG1	0.000	
3	 C27	7.963	-1.129	21.903	C.2	1	LIG1	0.000	
4	 C28	6.972	-1.296	18.670	C.2	1	LIG1	0.000	
5	 C29	13.501	-1.506	22.684	C.2	1	LIG1	0.000	
6	 C30	13.109	-0.346	23.358	C.2	1	LIG1	0.000	
7	 C31	12.709	-2.643	22.689	C.2	1	LIG1	0.000	
8	 C32	11.946	-0.343	24.046	C.2	1	LIG1	0.000	
9	 C33	11.532	-2.613	23.395	C.2	1	LIG1	0.000	
10	 C34	3.222	1.267	20.564	C.2	1	LIG1	0.000	
11	 C35	3.735	0.585	21.604	C.2	1	LIG1	0.000	
12	 C36	11.163	-1.468	24.055	C.2	1	LIG1	0.000	
13	 C37	5.431	0.139	17.830	C.2	1	LIG1	0.000	
14	 C38	3.764	1.141	19.313	C.2	1	LIG1	0.000	
15	 C39	4.807	-0.211	21.447	C.2	1	LIG1	0.000	
16	 C40	6.477	-1.217	19.947	C.2	1	LIG1	0.000	
17	 C41	4.841	0.318	19.091	C.2	1	LIG1	0.000	
18	 C42	5.368	-0.385	20.191	C.2	1	LIG1	0.000	
19	 N43	8.116	-1.537	23.191	N.pl3	1	LIG1	0.000	
20	 C44	7.141	-2.002	21.019	C.3	1	LIG1	0.000	
21	 C45	7.563	-2.781	23.710	C.3	1	LIG1	0.000	
22	 C46	6.461	-2.426	24.701	C.3	1	LIG1	0.000	
23	 C47	7.097	-1.506	25.838	C.3	1	LIG1	0.000	
24	 C48	9.910	-1.433	24.858	C.3	1	LIG1	0.000	
25	 C49	7.745	-0.260	25.179	C.3	1	LIG1	0.000	
26	 C50	8.805	-0.695	24.173	C.3	1	LIG1	0.000	
@<TRIPOS>BOND
1 1 3 2
2 2 13 ar
3 3 19 1
4 3 20 1
5 2 4 ar
6 5 7 ar
7 5 6 ar
8 7 9 ar
9 6 8 ar
10 10 11 ar
11 11 15 ar
12 8 12 ar
13 9 12 ar
14 13 17 ar
15 10 14 ar
16 15 18 ar
17 4 16 ar
18 16 18 ar
19 14 17 ar
20 17 18 ar
21 19 21 1
22 19 26 1
23 16 20 1
24 21 22 1
25 22 23 1
26 23 25 1
27 12 24 1
28 25 26 1
29 24 26 1
@<TRIPOS>SUBSTRUCTURE
1	LIG1	1	GROUP	1 C	LIG
