# created with PyMOL 3.1.3.1
@<TRIPOS>MOLECULE
predicted
30 33 1                 
SMALL
USER_CHARGES
@<TRIPOS>ATOM
1	CL27	14.066	-0.804	21.754	Cl	1	LIG1	0.000	
2	 O25	9.155	0.394	21.280	O.2	1	LIG1	0.000	
3	 O26	5.405	-2.305	23.904	O.2	1	LIG1	0.000	
4	 N28	6.748	0.344	17.467	N.2	1	LIG1	0.000	
5	 C29	8.567	-0.633	21.466	C.2	1	LIG1	0.000	
6	 C30	5.967	-3.280	24.345	C.2	1	LIG1	0.000	
7	 C31	7.306	-0.299	18.462	C.2	1	LIG1	0.000	
8	 C32	12.994	-2.309	23.675	C.3	1	LIG1	0.000	
9	 C33	11.942	-2.884	24.356	C.3	1	LIG1	0.000	
10	 C34	11.459	-1.292	22.188	C.3	1	LIG1	0.000	
11	 C35	3.498	2.110	20.446	C.2	1	LIG1	0.000	
12	 C36	4.088	1.462	21.494	C.2	1	LIG1	0.000	
13	 C37	12.740	-1.515	22.598	C.3	1	LIG1	0.000	
14	 C38	10.622	-2.638	23.953	C.3	1	LIG1	0.000	
15	 C39	10.375	-1.807	22.870	C.3	1	LIG1	0.000	
16	 C40	5.665	1.067	17.664	C.2	1	LIG1	0.000	
17	 C41	4.000	2.001	19.175	C.2	1	LIG1	0.000	
18	 C42	5.185	0.693	21.315	C.2	1	LIG1	0.000	
19	 C43	6.866	-0.231	19.769	C.2	1	LIG1	0.000	
20	 C44	5.119	1.217	18.944	C.2	1	LIG1	0.000	
21	 C45	5.718	0.549	20.016	C.2	1	LIG1	0.000	
22	 N46	7.445	-1.002	20.795	N.pl3	1	LIG1	0.000	
23	 N47	5.706	-4.532	23.964	N.pl3	1	LIG1	0.000	
24	 C48	4.660	-4.823	23.069	C.3	1	LIG1	0.000	
25	 C49	6.927	-2.353	26.430	C.3	1	LIG1	0.000	
26	 C50	9.506	-3.279	24.703	C.3	1	LIG1	0.000	
27	 C51	8.074	-1.649	23.598	C.3	1	LIG1	0.000	
28	 C52	8.982	-1.652	22.427	C.3	1	LIG1	0.000	
29	 C53	7.177	-3.138	25.218	C.3	1	LIG1	0.000	
30	 N54	8.226	-2.694	24.410	N.3	1	LIG1	0.000	
@<TRIPOS>BOND
1 4 16 ar
2 2 5 2
3 5 22 1
4 3 6 2
5 6 29 1
6 4 7 ar
7 8 13 1
8 8 9 1
9 10 15 1
10 11 12 ar
11 12 18 ar
12 1 13 1
13 10 13 1
14 9 14 1
15 14 15 1
16 15 28 1
17 16 20 ar
18 11 17 ar
19 18 21 ar
20 7 19 ar
21 19 21 ar
22 17 20 ar
23 20 21 ar
24 19 22 1
25 6 23 1
26 23 24 1
27 14 26 1
28 5 28 1
29 27 28 1
30 25 29 1
31 29 30 1
32 26 30 1
33 27 30 1
@<TRIPOS>SUBSTRUCTURE
1	LIG1	1	GROUP	1 C	LIG
