# created with PyMOL 3.1.3.1
@<TRIPOS>MOLECULE
predicted
28 31 1                 
SMALL
USER_CHARGES
@<TRIPOS>ATOM
1	 O27	8.815	0.116	21.526	O.2	1	LIG1	0.000	
2	 N28	6.435	-0.732	18.036	N.2	1	LIG1	0.000	
3	 O29	8.215	-1.146	25.964	O.3	1	LIG1	0.000	
4	 C30	8.651	-0.977	21.974	C.2	1	LIG1	0.000	
5	 C31	7.163	-1.341	19.000	C.2	1	LIG1	0.000	
6	 C32	7.404	2.371	25.698	C.2	1	LIG1	0.000	
7	 C33	8.323	2.801	24.727	C.2	1	LIG1	0.000	
8	 C34	7.367	1.075	26.085	C.2	1	LIG1	0.000	
9	 C35	9.182	1.892	24.159	C.2	1	LIG1	0.000	
10	 C36	3.397	0.914	21.306	C.2	1	LIG1	0.000	
11	 C37	4.121	0.313	22.312	C.2	1	LIG1	0.000	
12	 C38	8.254	0.162	25.508	C.2	1	LIG1	0.000	
13	 C39	9.224	0.578	24.558	C.2	1	LIG1	0.000	
14	 C40	5.338	-0.078	18.321	C.2	1	LIG1	0.000	
15	 C41	3.780	0.798	19.978	C.2	1	LIG1	0.000	
16	 C42	5.252	-0.408	22.035	C.2	1	LIG1	0.000	
17	 C43	6.827	-1.291	20.348	C.2	1	LIG1	0.000	
18	 C44	4.917	0.061	19.650	C.2	1	LIG1	0.000	
19	 C45	5.665	-0.550	20.689	C.2	1	LIG1	0.000	
20	 N46	9.389	-1.342	23.116	N.pl3	1	LIG1	0.000	
21	 C47	7.138	-1.541	26.824	C.3	1	LIG1	0.000	
22	 C48	7.704	-1.951	21.392	C.3	1	LIG1	0.000	
23	 C49	9.533	-2.698	23.571	C.3	1	LIG1	0.000	
24	 C50	13.316	-2.392	24.105	C.3	1	LIG1	0.000	
25	 C51	11.002	-3.089	23.557	C.3	1	LIG1	0.000	
26	 C52	11.560	-0.610	23.832	C.3	1	LIG1	0.000	
27	 C53	11.875	-2.063	24.254	C.3	1	LIG1	0.000	
28	 C54	10.145	-0.365	23.839	C.3	1	LIG1	0.000	
@<TRIPOS>BOND
1 2 14 ar
2 3 12 1
3 1 4 2
4 4 22 1
5 2 5 ar
6 6 7 ar
7 7 9 ar
8 6 8 ar
9 9 13 ar
10 10 11 ar
11 11 16 ar
12 8 12 ar
13 12 13 ar
14 13 28 1
15 14 18 ar
16 10 15 ar
17 16 19 ar
18 5 17 ar
19 17 19 ar
20 15 18 ar
21 18 19 ar
22 4 20 1
23 3 21 1
24 17 22 1
25 20 23 1
26 23 25 1
27 26 27 1
28 24 27 1
29 25 27 1
30 20 28 1
31 26 28 1
@<TRIPOS>SUBSTRUCTURE
1	LIG1	1	GROUP	1 C	LIG
