# created with PyMOL 3.1.3.1
@<TRIPOS>MOLECULE
predicted
21 22 1                 
SMALL
USER_CHARGES
@<TRIPOS>ATOM
1	CL15	13.969	-1.731	21.889	Cl	1	LIG1	0.000	
2	 O11	9.141	1.212	21.084	O.2	1	LIG1	0.000	
3	 N16	6.757	0.419	17.689	N.2	1	LIG1	0.000	
4	 C17	8.608	0.315	21.695	C.2	1	LIG1	0.000	
5	 C18	5.636	1.081	17.747	C.2	1	LIG1	0.000	
6	 C19	7.367	-0.010	18.818	C.2	1	LIG1	0.000	
7	 C20	12.389	1.278	24.044	C.2	1	LIG1	0.000	
8	 C21	13.322	0.436	23.430	C.2	1	LIG1	0.000	
9	 C22	5.033	1.396	18.971	C.2	1	LIG1	0.000	
10	 C23	11.034	1.029	23.912	C.2	1	LIG1	0.000	
11	 C24	11.532	-0.906	22.529	C.2	1	LIG1	0.000	
12	 C25	12.873	-0.649	22.682	C.2	1	LIG1	0.000	
13	 C26	6.800	0.257	20.081	C.2	1	LIG1	0.000	
14	 C27	5.640	0.965	20.153	C.2	1	LIG1	0.000	
15	 C28	10.629	-0.070	23.145	C.2	1	LIG1	0.000	
16	 N29	7.453	-0.235	21.267	N.pl3	1	LIG1	0.000	
17	 C30	5.033	1.314	21.478	C.3	1	LIG1	0.000	
18	 C31	9.148	-0.314	23.004	C.3	1	LIG1	0.000	
19	 F12	5.942	1.862	22.284	 F	1	LIG1	0.000	
20	 F13	4.088	2.196	21.349	 F	1	LIG1	0.000	
21	 F14	4.532	0.192	22.054	 F	1	LIG1	0.000	
@<TRIPOS>BOND
1 2 4 2
2 3 5 ar
3 4 16 1
4 4 18 1
5 5 9 ar
6 3 6 ar
7 7 8 ar
8 8 12 ar
9 9 14 ar
10 7 10 ar
11 1 12 1
12 11 12 ar
13 6 13 ar
14 13 14 ar
15 14 17 1
16 10 15 ar
17 11 15 ar
18 13 16 1
19 17 19 1
20 17 20 1
21 17 21 1
22 15 18 1
@<TRIPOS>SUBSTRUCTURE
1	LIG1	1	GROUP	1 C	LIG
