# created with PyMOL 3.1.3.1
@<TRIPOS>MOLECULE
predicted
32 36 1                 
SMALL
USER_CHARGES
@<TRIPOS>ATOM
1	 O27	10.823	2.000	24.067	O.2	1	LIG1	0.000	
2	 O28	8.965	0.154	21.225	O.2	1	LIG1	0.000	
3	 N30	6.434	-0.948	17.789	N.2	1	LIG1	0.000	
4	 C31	10.323	0.875	23.949	C.2	1	LIG1	0.000	
5	 C32	8.530	-0.868	21.718	C.2	1	LIG1	0.000	
6	 C33	7.137	-1.373	18.825	C.2	1	LIG1	0.000	
7	 C34	13.266	-1.276	23.252	C.2	1	LIG1	0.000	
8	 C35	12.517	-0.193	23.586	C.2	1	LIG1	0.000	
9	 C36	11.284	-2.519	22.697	C.2	1	LIG1	0.000	
10	 C37	3.170	0.969	20.763	C.2	1	LIG1	0.000	
11	 C38	3.872	0.524	21.856	C.2	1	LIG1	0.000	
12	 C39	12.673	-2.431	22.814	C.2	1	LIG1	0.000	
13	 C40	11.139	-0.263	23.538	C.2	1	LIG1	0.000	
14	 C41	10.496	-1.448	23.123	C.2	1	LIG1	0.000	
15	 C42	5.289	-0.293	17.973	C.2	1	LIG1	0.000	
16	 C43	3.633	0.698	19.481	C.2	1	LIG1	0.000	
17	 C44	5.021	-0.178	21.676	C.2	1	LIG1	0.000	
18	 C45	6.719	-1.166	20.142	C.2	1	LIG1	0.000	
19	 C46	4.805	-0.005	19.271	C.2	1	LIG1	0.000	
20	 C47	5.520	-0.447	20.391	C.2	1	LIG1	0.000	
21	 N48	7.487	-1.582	21.211	N.pl3	1	LIG1	0.000	
22	 N49	8.938	0.697	24.128	N.pl3	1	LIG1	0.000	
23	 C50	8.106	1.790	24.514	C.3	1	LIG1	0.000	
24	 C51	8.189	-3.587	24.203	C.3	1	LIG1	0.000	
25	 C52	7.277	-2.790	21.948	C.3	1	LIG1	0.000	
26	 C53	8.368	-0.627	24.157	C.3	1	LIG1	0.000	
27	 C54	7.409	4.580	22.260	C.3	1	LIG1	0.000	
28	 C55	7.559	2.396	23.222	C.3	1	LIG1	0.000	
29	 C56	8.390	-2.840	22.960	C.3	1	LIG1	0.000	
30	 C57	8.991	-1.469	23.029	C.3	1	LIG1	0.000	
31	 N58	7.308	3.775	23.384	N.3	1	LIG1	0.000	
32	 F29	13.459	-3.463	22.494	 F	1	LIG1	0.000	
@<TRIPOS>BOND
1 3 15 ar
2 1 4 2
3 2 5 2
4 5 21 1
5 3 6 ar
6 7 8 ar
7 8 13 ar
8 9 12 ar
9 10 11 ar
10 11 17 ar
11 7 12 ar
12 12 32 1
13 4 13 1
14 9 14 ar
15 13 14 ar
16 15 19 ar
17 10 16 ar
18 17 20 ar
19 6 18 ar
20 18 20 ar
21 16 19 ar
22 19 20 ar
23 18 21 1
24 21 25 1
25 4 22 1
26 22 26 1
27 22 23 1
28 25 29 1
29 26 30 1
30 27 31 1
31 23 28 1
32 24 29 1
33 5 30 1
34 14 30 1
35 29 30 1
36 28 31 1
@<TRIPOS>SUBSTRUCTURE
1	LIG1	1	GROUP	1 C	LIG
