# created with PyMOL 3.1.3.1
@<TRIPOS>MOLECULE
predicted
20 22 1                 
SMALL
USER_CHARGES
@<TRIPOS>ATOM
1	CL13	-13.916	-1.821	-21.758	Cl	1	LIG1	0.000	
2	 O12	-8.631	0.733	-21.100	O.2	1	LIG1	0.000	
3	 N14	-7.118	-0.068	-18.154	N.2	1	LIG1	0.000	
4	 N15	-6.309	0.767	-17.518	N.2	1	LIG1	0.000	
5	 C16	-8.300	-0.400	-21.240	C.2	1	LIG1	0.000	
6	 C17	-11.592	0.595	-23.970	C.2	1	LIG1	0.000	
7	 C18	-12.710	0.007	-23.381	C.2	1	LIG1	0.000	
8	 C19	-10.322	0.151	-23.634	C.2	1	LIG1	0.000	
9	 C20	-11.310	-1.493	-22.129	C.2	1	LIG1	0.000	
10	 C21	-3.551	2.346	-19.460	C.2	1	LIG1	0.000	
11	 C22	-3.782	1.638	-20.644	C.2	1	LIG1	0.000	
12	 C23	-12.554	-1.041	-22.468	C.2	1	LIG1	0.000	
13	 C24	-10.226	-0.900	-22.714	C.2	1	LIG1	0.000	
14	 C25	-4.319	2.058	-18.274	C.2	1	LIG1	0.000	
15	 C26	-6.743	-0.164	-19.404	C.2	1	LIG1	0.000	
16	 C27	-4.917	0.826	-20.767	C.2	1	LIG1	0.000	
17	 C28	-5.407	1.176	-18.401	C.2	1	LIG1	0.000	
18	 N29	-7.384	-0.968	-20.427	N.pl3	1	LIG1	0.000	
19	 N30	-5.673	0.588	-19.609	N.2	1	LIG1	0.000	
20	 C31	-8.849	-1.338	-22.331	C.3	1	LIG1	0.000	
@<TRIPOS>BOND
1 2 5 2
2 3 4 ar
3 4 17 ar
4 5 18 1
5 5 20 1
6 6 7 ar
7 7 12 ar
8 6 8 ar
9 10 11 ar
10 11 16 ar
11 1 12 1
12 9 12 ar
13 8 13 ar
14 9 13 ar
15 10 14 ar
16 3 15 ar
17 15 19 ar
18 16 19 ar
19 14 17 ar
20 17 19 ar
21 15 18 1
22 13 20 1
@<TRIPOS>SUBSTRUCTURE
1	LIG1	1	GROUP	1 C	LIG
