# created with PyMOL 3.1.3.1
@<TRIPOS>MOLECULE
predicted
21 23 1                 
SMALL
USER_CHARGES
@<TRIPOS>ATOM
1	 O23	8.910	0.258	21.285	O.2	1	LIG1	0.000	
2	 N24	6.521	-0.732	17.913	N.2	1	LIG1	0.000	
3	 C25	8.766	-0.837	21.801	C.2	1	LIG1	0.000	
4	 C26	7.243	-1.301	18.888	C.2	1	LIG1	0.000	
5	 C27	3.450	0.915	21.102	C.2	1	LIG1	0.000	
6	 C28	4.163	0.353	22.108	C.2	1	LIG1	0.000	
7	 C29	5.436	-0.086	18.179	C.2	1	LIG1	0.000	
8	 C30	3.858	0.787	19.789	C.2	1	LIG1	0.000	
9	 C31	5.302	-0.323	21.860	C.2	1	LIG1	0.000	
10	 C32	6.896	-1.205	20.202	C.2	1	LIG1	0.000	
11	 C33	4.997	0.083	19.491	C.2	1	LIG1	0.000	
12	 C34	5.736	-0.488	20.553	C.2	1	LIG1	0.000	
13	 N35	9.482	-1.160	22.888	N.pl3	1	LIG1	0.000	
14	 C36	7.776	-1.826	21.242	C.3	1	LIG1	0.000	
15	 C37	9.590	-2.492	23.422	C.3	1	LIG1	0.000	
16	 C38	9.657	0.752	24.311	C.3	1	LIG1	0.000	
17	 C39	13.419	-2.378	23.349	C.3	1	LIG1	0.000	
18	 C40	11.007	-2.942	23.119	C.3	1	LIG1	0.000	
19	 C41	11.730	-0.544	23.273	C.3	1	LIG1	0.000	
20	 C42	10.372	-0.201	23.524	C.3	1	LIG1	0.000	
21	 C43	12.011	-1.980	23.717	C.3	1	LIG1	0.000	
@<TRIPOS>BOND
1 2 7 ar
2 1 3 2
3 3 14 1
4 2 4 ar
5 5 6 ar
6 6 9 ar
7 7 11 ar
8 5 8 ar
9 9 12 ar
10 4 10 ar
11 10 12 ar
12 8 11 ar
13 11 12 ar
14 3 13 1
15 13 20 1
16 10 14 1
17 13 15 1
18 17 21 1
19 15 18 1
20 16 20 1
21 19 20 1
22 18 21 1
23 19 21 1
@<TRIPOS>SUBSTRUCTURE
1	LIG1	1	GROUP	1 C	LIG
