# created with PyMOL 3.1.3.1
@<TRIPOS>MOLECULE
predicted
18 19 1                 
SMALL
USER_CHARGES
@<TRIPOS>ATOM
1	CL15	13.804	-1.722	21.547	Cl	1	LIG1	0.000	
2	 O14	8.955	1.075	20.798	O.2	1	LIG1	0.000	
3	 N16	6.534	0.477	17.443	N.2	1	LIG1	0.000	
4	 C17	8.428	0.190	21.386	C.2	1	LIG1	0.000	
5	 C18	5.385	1.114	17.544	C.2	1	LIG1	0.000	
6	 C19	7.154	-0.006	18.540	C.2	1	LIG1	0.000	
7	 C20	12.123	1.252	23.650	C.2	1	LIG1	0.000	
8	 C21	13.081	0.436	23.044	C.2	1	LIG1	0.000	
9	 C22	4.784	1.359	18.771	C.2	1	LIG1	0.000	
10	 C23	10.773	0.964	23.526	C.2	1	LIG1	0.000	
11	 C24	11.328	-0.976	22.174	C.2	1	LIG1	0.000	
12	 C25	12.663	-0.682	22.316	C.2	1	LIG1	0.000	
13	 C26	6.601	0.177	19.799	C.2	1	LIG1	0.000	
14	 C27	5.393	0.860	19.895	C.2	1	LIG1	0.000	
15	 C28	10.402	-0.170	22.800	C.2	1	LIG1	0.000	
16	 N29	7.236	-0.329	20.962	N.pl3	1	LIG1	0.000	
17	 C30	4.783	1.123	21.239	C.3	1	LIG1	0.000	
18	 C31	8.924	-0.446	22.662	C.3	1	LIG1	0.000	
@<TRIPOS>BOND
1 3 6 ar
2 2 4 2
3 4 18 1
4 3 5 ar
5 6 13 ar
6 7 8 ar
7 8 12 ar
8 5 9 ar
9 7 10 ar
10 1 12 1
11 11 12 ar
12 13 16 1
13 9 14 ar
14 13 14 ar
15 10 15 ar
16 11 15 ar
17 4 16 1
18 14 17 1
19 15 18 1
@<TRIPOS>SUBSTRUCTURE
1	LIG1	1	GROUP	1 C	LIG
