# created with PyMOL 3.1.3.1
@<TRIPOS>MOLECULE
predicted
27 29 1                 
SMALL
USER_CHARGES
@<TRIPOS>ATOM
1	CL25	13.814	-1.764	22.069	Cl	1	LIG1	0.000	
2	 O24	8.793	0.778	21.174	O.2	1	LIG1	0.000	
3	 N26	6.494	0.228	17.647	N.2	1	LIG1	0.000	
4	 O27	3.047	1.660	22.840	O.3	1	LIG1	0.000	
5	 C28	8.291	-0.204	21.664	C.2	1	LIG1	0.000	
6	 C29	7.075	-0.328	18.719	C.2	1	LIG1	0.000	
7	 C30	11.784	0.995	24.154	C.2	1	LIG1	0.000	
8	 C31	12.827	0.273	23.579	C.2	1	LIG1	0.000	
9	 C32	10.471	0.601	23.962	C.2	1	LIG1	0.000	
10	 C33	11.259	-1.252	22.584	C.2	1	LIG1	0.000	
11	 C34	3.102	2.031	20.510	C.2	1	LIG1	0.000	
12	 C35	12.547	-0.847	22.799	C.2	1	LIG1	0.000	
13	 C36	3.670	1.482	21.603	C.2	1	LIG1	0.000	
14	 C37	10.253	-0.531	23.152	C.2	1	LIG1	0.000	
15	 C38	5.375	0.920	17.803	C.2	1	LIG1	0.000	
16	 C39	3.645	1.872	19.250	C.2	1	LIG1	0.000	
17	 C40	4.807	0.748	21.455	C.2	1	LIG1	0.000	
18	 C41	6.588	-0.209	19.986	C.2	1	LIG1	0.000	
19	 C42	4.782	1.134	19.071	C.2	1	LIG1	0.000	
20	 C43	5.391	0.550	20.204	C.2	1	LIG1	0.000	
21	 N44	7.195	-0.793	21.119	N.pl3	1	LIG1	0.000	
22	 C45	8.820	-0.918	22.891	C.3	1	LIG1	0.000	
23	 C46	3.696	1.560	24.042	C.3	1	LIG1	0.000	
24	 C47	0.731	2.898	25.731	C.3	1	LIG1	0.000	
25	 C48	0.862	0.566	25.195	C.3	1	LIG1	0.000	
26	 C49	2.854	1.960	25.226	C.3	1	LIG1	0.000	
27	 N50	1.419	1.901	25.002	N.3	1	LIG1	0.000	
@<TRIPOS>BOND
1 3 6 ar
2 4 13 1
3 2 5 2
4 5 22 1
5 6 18 ar
6 7 8 ar
7 8 12 ar
8 7 9 ar
9 11 16 ar
10 1 12 1
11 10 12 ar
12 11 13 ar
13 13 17 ar
14 9 14 ar
15 10 14 ar
16 3 15 ar
17 16 19 ar
18 18 20 ar
19 18 21 1
20 15 19 ar
21 19 20 ar
22 17 20 ar
23 5 21 1
24 14 22 1
25 4 23 1
26 24 27 1
27 23 26 1
28 25 27 1
29 26 27 1
@<TRIPOS>SUBSTRUCTURE
1	LIG1	1	GROUP	1 C	LIG
