# created with PyMOL 3.1.3.1
@<TRIPOS>MOLECULE
predicted
34 39 1                 
SMALL
USER_CHARGES
@<TRIPOS>ATOM
1	CL31	14.017	-1.953	21.471	Cl	1	LIG1	0.000	
2	 O29	6.283	2.944	24.431	O.2	1	LIG1	0.000	
3	 O30	9.128	1.483	21.358	O.2	1	LIG1	0.000	
4	 N32	6.756	0.254	17.802	N.2	1	LIG1	0.000	
5	 C33	7.411	3.300	24.295	C.2	1	LIG1	0.000	
6	 C34	8.796	0.383	21.808	C.2	1	LIG1	0.000	
7	 C35	7.448	-0.172	18.844	C.2	1	LIG1	0.000	
8	 C36	13.613	0.205	22.997	C.2	1	LIG1	0.000	
9	 C37	12.857	1.074	23.717	C.2	1	LIG1	0.000	
10	 C38	11.623	-0.974	22.311	C.2	1	LIG1	0.000	
11	 C39	3.482	2.095	20.744	C.2	1	LIG1	0.000	
12	 C40	4.170	1.654	21.835	C.2	1	LIG1	0.000	
13	 C41	12.986	-0.820	22.292	C.2	1	LIG1	0.000	
14	 C42	11.482	0.940	23.741	C.2	1	LIG1	0.000	
15	 C43	10.833	-0.141	23.097	C.2	1	LIG1	0.000	
16	 C44	5.613	0.892	17.985	C.2	1	LIG1	0.000	
17	 C45	3.946	1.849	19.471	C.2	1	LIG1	0.000	
18	 C46	5.326	0.990	21.674	C.2	1	LIG1	0.000	
19	 C47	7.053	0.041	20.166	C.2	1	LIG1	0.000	
20	 C48	5.122	1.168	19.277	C.2	1	LIG1	0.000	
21	 C49	5.839	0.732	20.395	C.2	1	LIG1	0.000	
22	 N50	7.793	4.099	23.296	N.pl3	1	LIG1	0.000	
23	 N51	7.820	-0.373	21.247	N.pl3	1	LIG1	0.000	
24	 C52	6.818	4.756	22.423	C.3	1	LIG1	0.000	
25	 C53	7.741	-1.665	21.923	C.3	1	LIG1	0.000	
26	 C54	5.664	6.877	21.880	C.3	1	LIG1	0.000	
27	 C55	7.025	7.189	21.644	C.3	1	LIG1	0.000	
28	 C56	6.759	6.244	22.770	C.3	1	LIG1	0.000	
29	 C57	8.841	-1.636	23.017	C.3	1	LIG1	0.000	
30	 C58	8.478	2.722	25.134	C.3	1	LIG1	0.000	
31	 C59	10.694	1.911	24.584	C.3	1	LIG1	0.000	
32	 C60	8.765	0.478	24.299	C.3	1	LIG1	0.000	
33	 C61	9.362	-0.236	23.057	C.3	1	LIG1	0.000	
34	 N62	9.223	1.863	24.313	N.3	1	LIG1	0.000	
@<TRIPOS>BOND
1 2 5 2
2 4 16 ar
3 5 22 1
4 5 30 1
5 3 6 2
6 4 7 ar
7 8 13 ar
8 8 9 ar
9 10 15 ar
10 11 12 ar
11 12 18 ar
12 1 13 1
13 10 13 ar
14 9 14 ar
15 14 15 ar
16 15 33 1
17 16 20 ar
18 11 17 ar
19 18 21 ar
20 7 19 ar
21 19 21 ar
22 17 20 ar
23 20 21 ar
24 22 24 1
25 6 23 1
26 19 23 1
27 24 28 1
28 23 25 1
29 26 27 1
30 26 28 1
31 27 28 1
32 25 29 1
33 30 34 1
34 14 31 1
35 6 33 1
36 29 33 1
37 32 33 1
38 31 34 1
39 32 34 1
@<TRIPOS>SUBSTRUCTURE
1	LIG1	1	GROUP	1 C	LIG
