# created with PyMOL 3.1.3.1
@<TRIPOS>MOLECULE
predicted
38 42 1                 
SMALL
USER_CHARGES
@<TRIPOS>ATOM
1	 O27	11.213	2.065	24.298	O.2	1	LIG1	0.000	
2	 O28	9.132	3.866	24.651	O.2	1	LIG1	0.000	
3	 O29	9.146	0.396	21.475	O.2	1	LIG1	0.000	
4	 O30	8.479	-5.908	23.323	O.2	1	LIG1	0.000	
5	 O31	6.521	-4.800	24.194	O.2	1	LIG1	0.000	
6	 N33	6.642	-0.737	17.990	N.2	1	LIG1	0.000	
7	 C34	10.684	0.953	24.136	C.2	1	LIG1	0.000	
8	 C35	8.448	3.018	24.185	C.2	1	LIG1	0.000	
9	 C36	8.746	-0.672	21.926	C.2	1	LIG1	0.000	
10	 C37	7.350	-1.186	19.031	C.2	1	LIG1	0.000	
11	 C38	13.587	-1.093	23.003	C.2	1	LIG1	0.000	
12	 C39	12.859	-0.051	23.495	C.2	1	LIG1	0.000	
13	 C40	11.551	-2.353	22.593	C.2	1	LIG1	0.000	
14	 C41	3.389	1.162	20.999	C.2	1	LIG1	0.000	
15	 C42	4.102	0.697	22.104	C.2	1	LIG1	0.000	
16	 C43	12.945	-2.250	22.541	C.2	1	LIG1	0.000	
17	 C44	11.470	-0.142	23.572	C.2	1	LIG1	0.000	
18	 C45	10.805	-1.319	23.169	C.2	1	LIG1	0.000	
19	 C46	5.498	-0.074	18.202	C.2	1	LIG1	0.000	
20	 C47	3.851	0.905	19.707	C.2	1	LIG1	0.000	
21	 C48	5.251	-0.009	21.927	C.2	1	LIG1	0.000	
22	 C49	6.932	-0.981	20.357	C.2	1	LIG1	0.000	
23	 C50	5.015	0.196	19.503	C.2	1	LIG1	0.000	
24	 C51	5.726	-0.265	20.623	C.2	1	LIG1	0.000	
25	 N52	7.768	3.144	23.041	N.pl3	1	LIG1	0.000	
26	 N53	7.729	-1.413	21.421	N.pl3	1	LIG1	0.000	
27	 N54	9.301	0.758	24.407	N.pl3	1	LIG1	0.000	
28	 N55	8.199	-5.739	25.893	N.3	1	LIG1	0.000	
29	 C56	7.698	4.375	22.341	C.3	1	LIG1	0.000	
30	 C57	9.495	-6.246	26.177	C.3	1	LIG1	0.000	
31	 C58	8.389	1.752	24.898	C.3	1	LIG1	0.000	
32	 C59	7.605	-2.654	22.096	C.3	1	LIG1	0.000	
33	 C60	8.751	-0.536	24.400	C.3	1	LIG1	0.000	
34	 C61	8.785	-3.472	24.382	C.3	1	LIG1	0.000	
35	 C62	8.682	-2.707	23.117	C.3	1	LIG1	0.000	
36	 C63	9.293	-1.344	23.184	C.3	1	LIG1	0.000	
37	 S64	7.958	-5.031	24.405	S.O2	1	LIG1	0.000	
38	 F32	13.688	-3.238	22.070	 F	1	LIG1	0.000	
@<TRIPOS>BOND
1 6 19 ar
2 1 7 2
3 2 8 2
4 8 31 1
5 3 9 2
6 9 26 1
7 6 10 ar
8 11 12 ar
9 12 17 ar
10 13 16 ar
11 14 15 ar
12 15 21 ar
13 11 16 ar
14 16 38 1
15 7 17 1
16 13 18 ar
17 17 18 ar
18 19 23 ar
19 14 20 ar
20 21 24 ar
21 10 22 ar
22 22 24 ar
23 20 23 ar
24 23 24 ar
25 8 25 1
26 22 26 1
27 26 32 1
28 7 27 1
29 27 33 1
30 28 30 1
31 25 29 1
32 27 31 1
33 32 35 1
34 33 36 1
35 34 37 1
36 34 35 1
37 9 36 1
38 18 36 1
39 35 36 1
40 4 37 2
41 5 37 2
42 28 37 1
@<TRIPOS>SUBSTRUCTURE
1	LIG1	1	GROUP	1 C	LIG
