# created with PyMOL 3.1.3.1
@<TRIPOS>MOLECULE
predicted
34 39 1                 
SMALL
USER_CHARGES
@<TRIPOS>ATOM
1	CL25	13.547	-3.331	22.308	Cl	1	LIG1	0.000	
2	 O23	10.459	2.225	24.299	O.2	1	LIG1	0.000	
3	 O24	8.794	0.325	21.366	O.2	1	LIG1	0.000	
4	 N26	6.442	-0.847	17.890	N.2	1	LIG1	0.000	
5	 N27	5.763	2.782	23.965	N.2	1	LIG1	0.000	
6	 C28	10.033	1.070	24.171	C.2	1	LIG1	0.000	
7	 C29	8.345	-0.696	21.880	C.2	1	LIG1	0.000	
8	 C30	7.091	-1.264	18.952	C.2	1	LIG1	0.000	
9	 C31	7.037	2.527	23.902	C.2	1	LIG1	0.000	
10	 C32	13.085	-0.890	23.229	C.2	1	LIG1	0.000	
11	 C33	12.287	0.148	23.641	C.2	1	LIG1	0.000	
12	 C34	11.130	-2.230	22.744	C.2	1	LIG1	0.000	
13	 C35	2.949	0.917	20.681	C.2	1	LIG1	0.000	
14	 C36	3.604	0.484	21.810	C.2	1	LIG1	0.000	
15	 C37	7.569	3.032	22.754	C.2	1	LIG1	0.000	
16	 C38	12.516	-2.064	22.789	C.2	1	LIG1	0.000	
17	 C39	10.907	-0.012	23.661	C.2	1	LIG1	0.000	
18	 C40	10.327	-1.220	23.243	C.2	1	LIG1	0.000	
19	 C41	5.268	-0.210	18.011	C.2	1	LIG1	0.000	
20	 C42	3.498	0.697	19.429	C.2	1	LIG1	0.000	
21	 C43	4.793	-0.147	21.692	C.2	1	LIG1	0.000	
22	 C44	6.620	-1.019	20.236	C.2	1	LIG1	0.000	
23	 C45	6.490	3.598	22.072	C.2	1	LIG1	0.000	
24	 C46	4.703	0.045	19.283	C.2	1	LIG1	0.000	
25	 C47	5.372	-0.374	20.428	C.2	1	LIG1	0.000	
26	 N48	7.351	-1.423	21.336	N.pl3	1	LIG1	0.000	
27	 N49	8.679	0.791	24.447	N.pl3	1	LIG1	0.000	
28	 N50	5.444	3.433	22.831	N.2	1	LIG1	0.000	
29	 C51	7.823	1.815	24.992	C.3	1	LIG1	0.000	
30	 C52	4.141	3.902	22.546	C.3	1	LIG1	0.000	
31	 C53	7.175	-2.681	22.030	C.3	1	LIG1	0.000	
32	 C54	8.158	-0.561	24.370	C.3	1	LIG1	0.000	
33	 C55	8.266	-2.659	23.123	C.3	1	LIG1	0.000	
34	 C56	8.821	-1.294	23.171	C.3	1	LIG1	0.000	
@<TRIPOS>BOND
1 4 19 ar
2 2 6 2
3 3 7 2
4 4 8 ar
5 5 9 ar
6 9 29 1
7 10 11 ar
8 11 17 ar
9 12 16 ar
10 13 14 ar
11 14 21 ar
12 9 15 ar
13 1 16 1
14 10 16 ar
15 6 17 1
16 12 18 ar
17 17 18 ar
18 19 24 ar
19 13 20 ar
20 21 25 ar
21 8 22 ar
22 22 25 ar
23 15 23 ar
24 20 24 ar
25 24 25 ar
26 7 26 1
27 22 26 1
28 6 27 1
29 27 32 1
30 5 28 ar
31 23 28 ar
32 27 29 1
33 28 30 1
34 26 31 1
35 32 34 1
36 31 33 1
37 7 34 1
38 18 34 1
39 33 34 1
@<TRIPOS>SUBSTRUCTURE
1	LIG1	1	GROUP	1 C	LIG
