# created with PyMOL 3.1.3.1
@<TRIPOS>MOLECULE
predicted
18 19 1                 
SMALL
USER_CHARGES
@<TRIPOS>ATOM
1	 O17	5.827	-2.600	26.108	O.2	1	LIG1	0.000	
2	 O18	5.997	-4.688	19.392	O.3	1	LIG1	0.000	
3	 S19	9.694	-5.290	27.621	S.3	1	LIG1	0.000	
4	 C20	6.593	-3.397	25.612	C.2	1	LIG1	0.000	
5	 C21	6.702	-3.752	19.689	C.3	1	LIG1	0.000	
6	 C22	4.996	-5.623	23.170	C.2	1	LIG1	0.000	
7	 C23	5.365	-5.074	24.333	C.2	1	LIG1	0.000	
8	 C24	5.483	-5.084	22.010	C.2	1	LIG1	0.000	
9	 C25	6.694	-3.434	23.254	C.2	1	LIG1	0.000	
10	 C26	6.218	-3.998	24.329	C.2	1	LIG1	0.000	
11	 C27	6.340	-3.987	22.068	C.2	1	LIG1	0.000	
12	 N28	6.872	-3.363	20.935	N.pl3	1	LIG1	0.000	
13	 N29	7.824	-3.658	26.058	N.pl3	1	LIG1	0.000	
14	 C30	7.437	-2.900	18.670	C.3	1	LIG1	0.000	
15	 C31	8.359	-4.340	28.232	C.3	1	LIG1	0.000	
16	 C32	9.026	-5.736	26.105	C.3	1	LIG1	0.000	
17	 C33	8.254	-3.155	27.296	C.3	1	LIG1	0.000	
18	 C34	8.766	-4.479	25.333	C.3	1	LIG1	0.000	
@<TRIPOS>BOND
1 3 16 1
2 1 4 2
3 4 13 1
4 2 5 1
5 5 12 1
6 6 7 ar
7 7 10 ar
8 6 8 ar
9 4 10 1
10 9 10 ar
11 8 11 ar
12 9 11 ar
13 11 12 1
14 13 17 1
15 13 18 1
16 5 14 1
17 3 15 1
18 16 18 1
19 15 17 1
@<TRIPOS>SUBSTRUCTURE
1	LIG1	1	GROUP	1 C	LIG
