# created with PyMOL 3.1.3.1
@<TRIPOS>MOLECULE
predicted
19 21 1                 
SMALL
USER_CHARGES
@<TRIPOS>ATOM
1	 O20	-8.413	-0.049	-21.246	O.2	1	LIG1	0.000	
2	 N21	-4.793	1.794	-17.606	N.2	1	LIG1	0.000	
3	 C22	-7.646	-0.796	-21.823	C.2	1	LIG1	0.000	
4	 C23	-3.986	2.603	-18.332	C.2	1	LIG1	0.000	
5	 C24	-3.810	2.464	-19.673	C.2	1	LIG1	0.000	
6	 C25	-4.478	1.461	-20.328	C.2	1	LIG1	0.000	
7	 C26	-6.065	-0.490	-19.906	C.2	1	LIG1	0.000	
8	 C27	-6.618	-0.912	-18.761	C.2	1	LIG1	0.000	
9	 C28	-5.279	0.597	-19.599	C.2	1	LIG1	0.000	
10	 C29	-5.425	0.791	-18.213	C.2	1	LIG1	0.000	
11	 N30	-7.994	-1.348	-23.036	N.pl3	1	LIG1	0.000	
12	 N31	-6.239	-0.141	-17.740	N.pl3	1	LIG1	0.000	
13	 C32	-6.322	-1.121	-21.240	C.3	1	LIG1	0.000	
14	 C33	-6.989	-1.833	-23.976	C.3	1	LIG1	0.000	
15	 C34	-9.340	-1.409	-23.523	C.3	1	LIG1	0.000	
16	 C35	-9.014	-4.497	-25.666	C.3	1	LIG1	0.000	
17	 C36	-7.293	-3.198	-24.511	C.3	1	LIG1	0.000	
18	 C37	-9.656	-2.798	-24.041	C.3	1	LIG1	0.000	
19	 N38	-8.671	-3.236	-25.085	N.3	1	LIG1	0.000	
@<TRIPOS>BOND
1 2 4 ar
2 1 3 2
3 3 13 1
4 4 5 ar
5 5 6 ar
6 6 9 ar
7 7 8 ar
8 7 9 ar
9 8 12 ar
10 2 10 ar
11 9 10 ar
12 3 11 1
13 11 15 1
14 10 12 ar
15 7 13 1
16 11 14 1
17 15 18 1
18 16 19 1
19 14 17 1
20 17 19 1
21 18 19 1
@<TRIPOS>SUBSTRUCTURE
1	LIG1	1	GROUP	1 C	LIG
