# created with PyMOL 3.1.3.1
@<TRIPOS>MOLECULE
predicted
34 39 1                 
SMALL
USER_CHARGES
@<TRIPOS>ATOM
1	CL27	14.080	-2.052	21.703	Cl	1	LIG1	0.000	
2	 O24	11.053	3.276	24.337	O.2	1	LIG1	0.000	
3	 O25	6.282	3.144	24.157	O.2	1	LIG1	0.000	
4	 O26	9.160	1.496	21.464	O.2	1	LIG1	0.000	
5	 N28	6.842	0.341	17.920	N.2	1	LIG1	0.000	
6	 C29	10.627	2.113	24.173	C.2	1	LIG1	0.000	
7	 C30	7.445	3.312	24.094	C.2	1	LIG1	0.000	
8	 C31	8.848	0.388	21.875	C.2	1	LIG1	0.000	
9	 C32	7.523	-0.128	18.926	C.2	1	LIG1	0.000	
10	 C33	13.649	0.336	22.914	C.2	1	LIG1	0.000	
11	 C34	12.858	1.305	23.461	C.2	1	LIG1	0.000	
12	 C35	11.707	-1.032	22.452	C.2	1	LIG1	0.000	
13	 C36	3.503	1.928	20.980	C.2	1	LIG1	0.000	
14	 C37	4.198	1.422	22.038	C.2	1	LIG1	0.000	
15	 C38	13.071	-0.839	22.389	C.2	1	LIG1	0.000	
16	 C39	11.486	1.098	23.536	C.2	1	LIG1	0.000	
17	 C40	10.908	-0.095	23.074	C.2	1	LIG1	0.000	
18	 C41	5.675	0.966	18.135	C.2	1	LIG1	0.000	
19	 C42	3.985	1.800	19.692	C.2	1	LIG1	0.000	
20	 C43	5.365	0.801	21.825	C.2	1	LIG1	0.000	
21	 C44	7.126	0.035	20.244	C.2	1	LIG1	0.000	
22	 C45	5.173	1.151	19.444	C.2	1	LIG1	0.000	
23	 C46	5.889	0.660	20.527	C.2	1	LIG1	0.000	
24	 N47	7.921	3.990	23.051	N.pl3	1	LIG1	0.000	
25	 N48	7.910	-0.396	21.297	N.pl3	1	LIG1	0.000	
26	 N49	9.299	1.779	24.498	N.pl3	1	LIG1	0.000	
27	 C50	7.059	4.527	22.051	C.3	1	LIG1	0.000	
28	 C51	7.876	-1.701	21.871	C.3	1	LIG1	0.000	
29	 C52	8.508	3.158	26.483	C.3	1	LIG1	0.000	
30	 C53	7.635	2.183	26.340	C.3	1	LIG1	0.000	
31	 C54	8.460	2.799	25.127	C.3	1	LIG1	0.000	
32	 C55	8.827	0.401	24.349	C.3	1	LIG1	0.000	
33	 C56	8.951	-1.637	23.011	C.3	1	LIG1	0.000	
34	 C57	9.425	-0.251	23.103	C.3	1	LIG1	0.000	
@<TRIPOS>BOND
1 5 18 ar
2 2 6 2
3 3 7 2
4 7 31 1
5 4 8 2
6 5 9 ar
7 10 11 ar
8 11 16 ar
9 12 15 ar
10 13 14 ar
11 14 20 ar
12 1 15 1
13 10 15 ar
14 6 16 1
15 12 17 ar
16 16 17 ar
17 18 22 ar
18 13 19 ar
19 20 23 ar
20 9 21 ar
21 21 23 ar
22 19 22 ar
23 22 23 ar
24 7 24 1
25 8 25 1
26 21 25 1
27 6 26 1
28 26 32 1
29 24 27 1
30 25 28 1
31 29 30 1
32 26 31 1
33 29 31 1
34 30 31 1
35 32 34 1
36 28 33 1
37 8 34 1
38 17 34 1
39 33 34 1
@<TRIPOS>SUBSTRUCTURE
1	LIG1	1	GROUP	1 C	LIG
