# created with PyMOL 3.1.3.1
@<TRIPOS>MOLECULE
predicted
31 35 1                 
SMALL
USER_CHARGES
@<TRIPOS>ATOM
1	CL25	13.861	-1.225	21.732	Cl	1	LIG1	0.000	
2	 O22	8.991	0.404	21.359	O.2	1	LIG1	0.000	
3	 O23	5.658	-2.387	25.302	O.2	1	LIG1	0.000	
4	 O24	6.199	-3.652	23.334	O.2	1	LIG1	0.000	
5	 N26	6.716	0.311	17.500	N.2	1	LIG1	0.000	
6	 C27	8.415	-0.638	21.551	C.2	1	LIG1	0.000	
7	 C28	7.248	-0.343	18.514	C.2	1	LIG1	0.000	
8	 C29	12.770	-2.044	24.018	C.2	1	LIG1	0.000	
9	 C30	11.699	-2.365	24.808	C.2	1	LIG1	0.000	
10	 C31	11.280	-1.450	22.275	C.2	1	LIG1	0.000	
11	 C32	3.371	2.006	20.419	C.2	1	LIG1	0.000	
12	 C33	3.930	1.340	21.486	C.2	1	LIG1	0.000	
13	 C34	12.544	-1.582	22.749	C.2	1	LIG1	0.000	
14	 C35	10.384	-2.210	24.331	C.2	1	LIG1	0.000	
15	 C36	10.176	-1.704	23.064	C.2	1	LIG1	0.000	
16	 C37	5.625	1.029	17.676	C.2	1	LIG1	0.000	
17	 C38	3.916	1.933	19.164	C.2	1	LIG1	0.000	
18	 C39	5.041	0.579	21.326	C.2	1	LIG1	0.000	
19	 C40	6.768	-0.290	19.805	C.2	1	LIG1	0.000	
20	 C41	5.037	1.156	18.954	C.2	1	LIG1	0.000	
21	 C42	5.609	0.472	20.039	C.2	1	LIG1	0.000	
22	 N43	7.347	-1.059	20.839	N.pl3	1	LIG1	0.000	
23	 N44	6.733	-4.587	25.533	N.3	1	LIG1	0.000	
24	 N45	7.956	-2.481	24.532	N.3	1	LIG1	0.000	
25	 C46	9.206	-2.553	25.218	C.3	1	LIG1	0.000	
26	 C47	5.894	-6.015	27.331	C.3	1	LIG1	0.000	
27	 C48	4.751	-5.808	26.392	C.3	1	LIG1	0.000	
28	 C49	5.745	-4.670	26.671	C.3	1	LIG1	0.000	
29	 C50	7.857	-1.470	23.717	C.3	1	LIG1	0.000	
30	 C51	8.800	-1.618	22.564	C.3	1	LIG1	0.000	
31	 S52	6.607	-3.305	24.678	S.O2	1	LIG1	0.000	
@<TRIPOS>BOND
1 2 6 2
2 5 16 ar
3 6 22 1
4 6 30 1
5 5 7 ar
6 8 13 ar
7 8 9 ar
8 10 15 ar
9 11 12 ar
10 12 18 ar
11 1 13 1
12 10 13 ar
13 9 14 ar
14 14 15 ar
15 16 20 ar
16 11 17 ar
17 18 21 ar
18 7 19 ar
19 19 21 ar
20 17 20 ar
21 20 21 ar
22 19 22 1
23 23 28 1
24 24 25 1
25 24 31 1
26 14 25 1
27 26 27 1
28 26 28 1
29 27 28 1
30 24 29 1
31 15 30 1
32 29 30 1
33 3 31 2
34 4 31 2
35 23 31 1
@<TRIPOS>SUBSTRUCTURE
1	LIG1	1	GROUP	1 C	LIG
