# created with PyMOL 3.1.3.1
@<TRIPOS>MOLECULE
predicted
37 40 1                 
SMALL
USER_CHARGES
@<TRIPOS>ATOM
1	 O31	-5.944	-2.430	-21.575	O.2	1	LIG1	0.000	
2	 O32	-9.425	1.131	-20.956	O.2	1	LIG1	0.000	
3	 N34	-6.984	-0.223	-17.737	N.2	1	LIG1	0.000	
4	 O35	-7.551	-4.911	-21.531	O.2	1	LIG1	0.000	
5	 C36	-7.107	-2.573	-21.923	C.2	1	LIG1	0.000	
6	 C37	-8.474	0.910	-21.695	C.2	1	LIG1	0.000	
7	 C38	-5.864	0.425	-17.633	C.2	1	LIG1	0.000	
8	 C39	-7.542	-0.449	-18.958	C.2	1	LIG1	0.000	
9	 C40	-7.476	-6.085	-22.236	C.2	1	LIG1	0.000	
10	 C41	-7.465	-3.894	-22.397	C.2	1	LIG1	0.000	
11	 C42	-5.186	0.926	-18.733	C.2	1	LIG1	0.000	
12	 C43	-7.194	-5.808	-23.609	C.2	1	LIG1	0.000	
13	 C44	-7.098	-4.377	-23.692	C.2	1	LIG1	0.000	
14	 C45	-12.120	5.676	-23.846	C.2	1	LIG1	0.000	
15	 C46	-13.293	5.147	-23.317	C.2	1	LIG1	0.000	
16	 C47	-10.309	-2.040	-21.489	C.2	1	LIG1	0.000	
17	 C48	-9.625	-1.397	-23.658	C.2	1	LIG1	0.000	
18	 C49	-11.036	4.821	-24.123	C.2	1	LIG1	0.000	
19	 C50	-12.299	2.925	-23.375	C.2	1	LIG1	0.000	
20	 C51	-11.608	-2.111	-21.905	C.2	1	LIG1	0.000	
21	 C52	-10.943	-1.483	-24.098	C.2	1	LIG1	0.000	
22	 C53	-5.789	0.727	-19.999	C.2	1	LIG1	0.000	
23	 C54	-13.380	3.786	-23.086	C.2	1	LIG1	0.000	
24	 C55	-9.293	-1.678	-22.359	C.2	1	LIG1	0.000	
25	 C56	-11.127	3.474	-23.865	C.2	1	LIG1	0.000	
26	 C57	-11.981	-1.844	-23.217	C.2	1	LIG1	0.000	
27	 C58	-6.918	-0.038	-20.121	C.2	1	LIG1	0.000	
28	 N59	-8.127	1.678	-22.709	N.pl3	1	LIG1	0.000	
29	 N60	-7.984	-1.539	-21.883	N.pl3	1	LIG1	0.000	
30	 C61	-13.725	-3.142	-24.406	C.3	1	LIG1	0.000	
31	 C62	-14.293	-1.819	-22.427	C.3	1	LIG1	0.000	
32	 C63	-13.701	-0.644	-24.464	C.3	1	LIG1	0.000	
33	 C64	-9.938	2.586	-24.105	C.3	1	LIG1	0.000	
34	 C65	-8.910	2.847	-23.053	C.3	1	LIG1	0.000	
35	 C66	-13.399	-1.885	-23.631	C.3	1	LIG1	0.000	
36	 C67	-7.502	-0.222	-21.504	C.3	1	LIG1	0.000	
37	 F33	-14.499	3.270	-22.559	 F	1	LIG1	0.000	
@<TRIPOS>BOND
1 3 8 ar
2 1 5 2
3 5 10 1
4 2 6 2
5 6 28 1
6 3 7 ar
7 4 9 ar
8 4 10 ar
9 10 13 ar
10 7 11 ar
11 9 12 ar
12 12 13 ar
13 14 15 ar
14 15 23 ar
15 16 24 ar
16 17 21 ar
17 14 18 ar
18 16 20 ar
19 11 22 ar
20 19 23 ar
21 23 37 1
22 17 24 ar
23 24 29 1
24 18 25 ar
25 19 25 ar
26 20 26 ar
27 21 26 ar
28 8 27 ar
29 22 27 ar
30 28 34 1
31 5 29 1
32 29 36 1
33 30 35 1
34 25 33 1
35 33 34 1
36 26 35 1
37 31 35 1
38 32 35 1
39 6 36 1
40 27 36 1
@<TRIPOS>SUBSTRUCTURE
1	LIG1	1	GROUP	1 C	LIG
