# created with PyMOL 3.1.3.1
@<TRIPOS>MOLECULE
predicted
16 17 1                 
SMALL
USER_CHARGES
@<TRIPOS>ATOM
1	CL22	11.742	-4.092	25.874	Cl	1	LIG1	0.000	
2	 O21	6.044	-5.120	19.020	O.2	1	LIG1	0.000	
3	 S23	9.047	-3.783	24.672	S.2	1	LIG1	0.000	
4	 C24	6.449	-4.170	19.617	C.2	1	LIG1	0.000	
5	 N25	6.242	-4.125	20.937	N.pl3	1	LIG1	0.000	
6	 C26	7.117	-3.013	18.953	C.3	1	LIG1	0.000	
7	 C27	5.767	-5.293	21.674	C.3	1	LIG1	0.000	
8	 C28	6.459	-2.858	21.630	C.3	1	LIG1	0.000	
9	 C29	8.017	-4.629	26.727	C.2	1	LIG1	0.000	
10	 C30	9.342	-4.645	26.923	C.2	1	LIG1	0.000	
11	 C31	6.078	-5.316	23.021	C.3	1	LIG1	0.000	
12	 C32	6.744	-2.939	22.980	C.3	1	LIG1	0.000	
13	 C33	6.315	-4.063	24.985	C.3	1	LIG1	0.000	
14	 C34	7.678	-4.199	25.523	C.2	1	LIG1	0.000	
15	 C35	10.016	-4.189	25.892	C.2	1	LIG1	0.000	
16	 N36	6.194	-4.070	23.620	N.3	1	LIG1	0.000	
@<TRIPOS>BOND
1 2 4 2
2 4 5 1
3 5 7 1
4 5 8 1
5 4 6 1
6 7 11 1
7 9 10 ar
8 10 15 ar
9 11 16 1
10 8 12 1
11 13 14 1
12 3 14 ar
13 9 14 ar
14 1 15 1
15 3 15 ar
16 12 16 1
17 13 16 1
@<TRIPOS>SUBSTRUCTURE
1	LIG1	1	GROUP	1 C	LIG
