# created with PyMOL 3.1.3.1
@<TRIPOS>MOLECULE
predicted
41 46 1                 
SMALL
USER_CHARGES
@<TRIPOS>ATOM
1	CL33	13.646	-3.374	22.674	Cl	1	LIG1	0.000	
2	 O30	10.365	2.281	23.939	O.2	1	LIG1	0.000	
3	 O31	8.309	3.768	24.835	O.2	1	LIG1	0.000	
4	 O32	8.804	0.327	21.241	O.2	1	LIG1	0.000	
5	 N34	6.393	-0.835	17.812	N.2	1	LIG1	0.000	
6	 O35	7.391	8.814	24.850	O.3	1	LIG1	0.000	
7	 C36	9.944	1.136	23.911	C.2	1	LIG1	0.000	
8	 C37	7.872	3.188	23.893	C.2	1	LIG1	0.000	
9	 C38	8.386	-0.706	21.738	C.2	1	LIG1	0.000	
10	 C39	7.087	-1.259	18.848	C.2	1	LIG1	0.000	
11	 C40	5.001	6.910	22.758	C.2	1	LIG1	0.000	
12	 C41	13.060	-0.858	23.418	C.2	1	LIG1	0.000	
13	 C42	5.513	7.912	23.620	C.2	1	LIG1	0.000	
14	 C43	12.236	0.193	23.706	C.2	1	LIG1	0.000	
15	 C44	5.828	5.901	22.319	C.2	1	LIG1	0.000	
16	 C45	7.693	6.889	23.555	C.2	1	LIG1	0.000	
17	 C46	11.175	-2.209	22.818	C.2	1	LIG1	0.000	
18	 C47	3.117	1.090	20.751	C.2	1	LIG1	0.000	
19	 C48	3.813	0.652	21.857	C.2	1	LIG1	0.000	
20	 C49	12.542	-2.056	22.979	C.2	1	LIG1	0.000	
21	 C50	6.860	7.891	24.011	C.2	1	LIG1	0.000	
22	 C51	10.866	0.040	23.596	C.2	1	LIG1	0.000	
23	 C52	7.195	5.942	22.717	C.2	1	LIG1	0.000	
24	 C53	10.330	-1.179	23.202	C.2	1	LIG1	0.000	
25	 C54	5.249	-0.184	17.999	C.2	1	LIG1	0.000	
26	 C55	3.591	0.810	19.475	C.2	1	LIG1	0.000	
27	 C56	4.958	-0.050	21.688	C.2	1	LIG1	0.000	
28	 C57	6.635	-1.062	20.146	C.2	1	LIG1	0.000	
29	 C58	4.747	0.105	19.281	C.2	1	LIG1	0.000	
30	 C59	5.448	-0.326	20.398	C.2	1	LIG1	0.000	
31	 N60	7.816	3.628	22.612	N.pl3	1	LIG1	0.000	
32	 N61	7.393	-1.450	21.207	N.pl3	1	LIG1	0.000	
33	 N62	8.561	0.867	24.029	N.pl3	1	LIG1	0.000	
34	 C63	6.795	10.009	24.990	C.3	1	LIG1	0.000	
35	 C64	7.507	1.791	24.052	C.3	1	LIG1	0.000	
36	 C65	8.102	4.928	22.192	C.3	1	LIG1	0.000	
37	 C66	8.125	-3.446	24.183	C.3	1	LIG1	0.000	
38	 C67	7.234	-2.664	21.934	C.3	1	LIG1	0.000	
39	 C68	8.128	-0.477	24.173	C.3	1	LIG1	0.000	
40	 C69	8.332	-2.669	22.944	C.3	1	LIG1	0.000	
41	 C70	8.836	-1.287	23.037	C.3	1	LIG1	0.000	
@<TRIPOS>BOND
1 5 25 ar
2 6 21 1
3 2 7 2
4 3 8 2
5 8 35 1
6 4 9 2
7 9 32 1
8 5 10 ar
9 11 15 ar
10 12 14 ar
11 11 13 ar
12 14 22 ar
13 15 23 ar
14 17 20 ar
15 18 19 ar
16 19 27 ar
17 1 20 1
18 12 20 ar
19 13 21 ar
20 16 21 ar
21 7 22 1
22 16 23 ar
23 23 36 1
24 17 24 ar
25 22 24 ar
26 25 29 ar
27 18 26 ar
28 27 30 ar
29 10 28 ar
30 28 30 ar
31 26 29 ar
32 29 30 ar
33 8 31 1
34 28 32 1
35 32 38 1
36 7 33 1
37 33 39 1
38 6 34 1
39 33 35 1
40 31 36 1
41 38 40 1
42 39 41 1
43 37 40 1
44 9 41 1
45 24 41 1
46 40 41 1
@<TRIPOS>SUBSTRUCTURE
1	LIG1	1	GROUP	1 C	LIG
