# created with PyMOL 3.1.3.1
@<TRIPOS>MOLECULE
predicted
26 29 1                 
SMALL
USER_CHARGES
@<TRIPOS>ATOM
1	CL21	14.118	-1.115	21.248	Cl	1	LIG1	0.000	
2	 O20	9.369	1.634	20.958	O.2	1	LIG1	0.000	
3	 N22	6.992	1.006	17.519	N.2	1	LIG1	0.000	
4	 O23	10.603	2.062	24.632	O.3	1	LIG1	0.000	
5	 C24	8.830	0.708	21.526	C.2	1	LIG1	0.000	
6	 C25	7.576	0.540	18.624	C.2	1	LIG1	0.000	
7	 C26	13.568	0.823	23.043	C.2	1	LIG1	0.000	
8	 C27	12.730	1.576	23.827	C.2	1	LIG1	0.000	
9	 C28	11.721	-0.382	22.106	C.2	1	LIG1	0.000	
10	 C29	3.507	2.747	20.174	C.2	1	LIG1	0.000	
11	 C30	4.093	2.265	21.310	C.2	1	LIG1	0.000	
12	 C31	13.059	-0.168	22.196	C.2	1	LIG1	0.000	
13	 C32	11.390	1.362	23.758	C.2	1	LIG1	0.000	
14	 C33	10.837	0.357	22.909	C.2	1	LIG1	0.000	
15	 C34	5.864	1.656	17.595	C.2	1	LIG1	0.000	
16	 C35	4.079	2.566	18.942	C.2	1	LIG1	0.000	
17	 C36	5.255	1.591	21.261	C.2	1	LIG1	0.000	
18	 C37	7.050	0.708	19.895	C.2	1	LIG1	0.000	
19	 C38	5.242	1.879	18.841	C.2	1	LIG1	0.000	
20	 C39	5.850	1.392	20.008	C.2	1	LIG1	0.000	
21	 N40	7.692	0.211	21.058	N.pl3	1	LIG1	0.000	
22	 C41	9.219	2.166	24.335	C.3	1	LIG1	0.000	
23	 C42	8.620	0.897	23.975	C.3	1	LIG1	0.000	
24	 C43	9.092	-1.273	23.045	C.1	1	LIG1	0.000	
25	 C44	9.367	0.170	22.843	C.3	1	LIG1	0.000	
26	 N45	9.033	-2.352	23.290	N.1	1	LIG1	0.000	
@<TRIPOS>BOND
1 3 15 ar
2 4 13 1
3 2 5 2
4 5 21 1
5 3 6 ar
6 7 12 ar
7 7 8 ar
8 9 14 ar
9 10 11 ar
10 11 17 ar
11 1 12 1
12 9 12 ar
13 8 13 ar
14 13 14 ar
15 15 19 ar
16 10 16 ar
17 17 20 ar
18 6 18 ar
19 18 20 ar
20 16 19 ar
21 19 20 ar
22 18 21 1
23 4 22 1
24 22 23 1
25 24 25 1
26 5 25 1
27 14 25 1
28 23 25 1
29 24 26 3
@<TRIPOS>SUBSTRUCTURE
1	LIG1	1	GROUP	1 C	LIG
