# created with PyMOL 3.1.3.1
@<TRIPOS>MOLECULE
predicted
20 22 1                 
SMALL
USER_CHARGES
@<TRIPOS>ATOM
1	 O15	-8.717	0.600	-20.896	O.2	1	LIG1	0.000	
2	 N16	-6.210	0.273	-17.592	N.2	1	LIG1	0.000	
3	 C17	-8.419	-0.495	-21.341	C.2	1	LIG1	0.000	
4	 C18	-6.780	-0.411	-18.568	C.2	1	LIG1	0.000	
5	 C19	-13.059	-0.202	-23.259	C.2	1	LIG1	0.000	
6	 C20	-12.803	-1.378	-22.529	C.2	1	LIG1	0.000	
7	 C21	-12.008	0.648	-23.612	C.2	1	LIG1	0.000	
8	 C22	-11.503	-1.706	-22.170	C.2	1	LIG1	0.000	
9	 C23	-10.710	0.307	-23.236	C.2	1	LIG1	0.000	
10	 C24	-3.028	2.030	-20.691	C.2	1	LIG1	0.000	
11	 C25	-3.611	1.335	-21.696	C.2	1	LIG1	0.000	
12	 C26	-10.496	-0.849	-22.516	C.2	1	LIG1	0.000	
13	 C27	-5.157	1.002	-17.820	C.2	1	LIG1	0.000	
14	 C28	-3.527	1.948	-19.418	C.2	1	LIG1	0.000	
15	 C29	-4.702	0.557	-21.472	C.2	1	LIG1	0.000	
16	 C30	-6.366	-0.365	-19.873	C.2	1	LIG1	0.000	
17	 C31	-4.622	1.146	-19.124	C.2	1	LIG1	0.000	
18	 C32	-5.211	0.432	-20.184	C.2	1	LIG1	0.000	
19	 N33	-9.176	-1.214	-22.148	N.pl3	1	LIG1	0.000	
20	 C34	-7.082	-1.151	-20.963	C.3	1	LIG1	0.000	
@<TRIPOS>BOND
1 1 3 2
2 2 13 ar
3 3 19 1
4 3 20 1
5 2 4 ar
6 5 7 ar
7 5 6 ar
8 7 9 ar
9 6 8 ar
10 10 11 ar
11 11 15 ar
12 8 12 ar
13 9 12 ar
14 13 17 ar
15 10 14 ar
16 15 18 ar
17 4 16 ar
18 16 18 ar
19 14 17 ar
20 17 18 ar
21 12 19 1
22 16 20 1
@<TRIPOS>SUBSTRUCTURE
1	LIG1	1	GROUP	1 C	LIG
