# created with PyMOL 3.1.3.1
@<TRIPOS>MOLECULE
predicted
27 31 1                 
SMALL
USER_CHARGES
@<TRIPOS>ATOM
1	CL17	13.499	-1.376	21.497	Cl	1	LIG1	0.000	
2	 O15	6.806	-2.301	21.400	O.2	1	LIG1	0.000	
3	 O16	8.467	1.848	21.310	O.2	1	LIG1	0.000	
4	 N18	6.543	0.720	17.632	N.2	1	LIG1	0.000	
5	 O19	9.968	2.074	24.606	O.3	1	LIG1	0.000	
6	 C20	7.371	-1.344	21.773	C.2	1	LIG1	0.000	
7	 C21	8.213	0.729	21.735	C.2	1	LIG1	0.000	
8	 C22	7.180	0.240	18.675	C.2	1	LIG1	0.000	
9	 C23	12.944	0.694	23.145	C.2	1	LIG1	0.000	
10	 C24	12.111	1.510	23.850	C.2	1	LIG1	0.000	
11	 C25	11.062	-0.577	22.297	C.2	1	LIG1	0.000	
12	 C26	3.002	2.254	20.468	C.2	1	LIG1	0.000	
13	 C27	3.609	1.708	21.573	C.2	1	LIG1	0.000	
14	 C28	12.429	-0.358	22.369	C.2	1	LIG1	0.000	
15	 C29	10.757	1.306	23.785	C.2	1	LIG1	0.000	
16	 C30	10.203	0.224	23.028	C.2	1	LIG1	0.000	
17	 C31	5.348	1.324	17.779	C.2	1	LIG1	0.000	
18	 C32	3.570	2.157	19.220	C.2	1	LIG1	0.000	
19	 C33	4.786	1.052	21.438	C.2	1	LIG1	0.000	
20	 C34	6.601	0.232	19.947	C.2	1	LIG1	0.000	
21	 C35	4.754	1.477	19.058	C.2	1	LIG1	0.000	
22	 C36	5.382	0.944	20.166	C.2	1	LIG1	0.000	
23	 N37	7.352	-0.122	21.105	N.pl3	1	LIG1	0.000	
24	 N38	8.207	-1.260	22.846	N.pl3	1	LIG1	0.000	
25	 C39	8.560	2.049	24.466	C.3	1	LIG1	0.000	
26	 C40	8.051	0.714	24.202	C.3	1	LIG1	0.000	
27	 C41	8.722	0.071	22.958	C.3	1	LIG1	0.000	
@<TRIPOS>BOND
1 2 6 2
2 4 17 ar
3 5 15 1
4 6 23 1
5 6 24 1
6 3 7 2
7 7 23 1
8 4 8 ar
9 9 14 ar
10 9 10 ar
11 11 16 ar
12 12 13 ar
13 13 19 ar
14 1 14 1
15 11 14 ar
16 10 15 ar
17 15 16 ar
18 17 21 ar
19 12 18 ar
20 19 22 ar
21 8 20 ar
22 20 22 ar
23 18 21 ar
24 21 22 ar
25 20 23 1
26 24 27 1
27 5 25 1
28 25 26 1
29 7 27 1
30 16 27 1
31 26 27 1
@<TRIPOS>SUBSTRUCTURE
1	LIG1	1	GROUP	1 C	LIG
