# created with PyMOL 3.1.3.1
@<TRIPOS>MOLECULE
predicted
19 20 1                 
SMALL
USER_CHARGES
@<TRIPOS>ATOM
1	CL17	13.920	-1.980	20.967	Cl	1	LIG1	0.000	
2	 O16	8.955	1.316	21.049	O.2	1	LIG1	0.000	
3	 N18	6.540	0.384	17.676	N.2	1	LIG1	0.000	
4	 C19	8.325	0.568	21.730	C.2	1	LIG1	0.000	
5	 C20	5.416	1.056	17.693	C.2	1	LIG1	0.000	
6	 C21	7.136	0.018	18.857	C.2	1	LIG1	0.000	
7	 C22	12.860	-0.044	24.274	C.2	1	LIG1	0.000	
8	 C23	13.624	-0.586	23.259	C.2	1	LIG1	0.000	
9	 C24	4.833	1.466	18.879	C.2	1	LIG1	0.000	
10	 C25	11.522	-0.164	24.270	C.2	1	LIG1	0.000	
11	 C26	11.650	-1.441	22.236	C.2	1	LIG1	0.000	
12	 C27	13.001	-1.298	22.262	C.2	1	LIG1	0.000	
13	 C28	6.576	0.366	20.076	C.2	1	LIG1	0.000	
14	 C29	5.417	1.105	20.061	C.2	1	LIG1	0.000	
15	 C30	10.918	-0.891	23.232	C.2	1	LIG1	0.000	
16	 N31	7.154	0.001	21.328	N.pl3	1	LIG1	0.000	
17	 C32	4.833	1.558	21.359	C.3	1	LIG1	0.000	
18	 C33	8.743	0.256	23.140	C.3	1	LIG1	0.000	
19	 C34	9.431	-1.055	23.223	C.3	1	LIG1	0.000	
@<TRIPOS>BOND
1 3 6 ar
2 2 4 2
3 4 18 1
4 3 5 ar
5 6 13 ar
6 7 8 ar
7 8 12 ar
8 5 9 ar
9 7 10 ar
10 1 12 1
11 11 12 ar
12 13 16 1
13 9 14 ar
14 13 14 ar
15 10 15 ar
16 11 15 ar
17 4 16 1
18 14 17 1
19 18 19 1
20 15 19 1
@<TRIPOS>SUBSTRUCTURE
1	LIG1	1	GROUP	1 C	LIG
