# created with PyMOL 3.1.3.1
@<TRIPOS>MOLECULE
predicted
38 43 1                 
SMALL
USER_CHARGES
@<TRIPOS>ATOM
1	CL37	-13.273	-2.409	-21.987	Cl	1	LIG1	0.000	
2	 O35	-9.927	3.177	-23.617	O.2	1	LIG1	0.000	
3	 O36	-8.312	1.075	-20.814	O.2	1	LIG1	0.000	
4	 N38	-6.006	-0.369	-17.342	N.2	1	LIG1	0.000	
5	 O39	-4.951	7.197	-23.215	O.3	1	LIG1	0.000	
6	 C40	-9.537	2.009	-23.533	C.2	1	LIG1	0.000	
7	 C41	-7.956	0.024	-21.313	C.2	1	LIG1	0.000	
8	 C42	-6.705	-0.726	-18.397	C.2	1	LIG1	0.000	
9	 C43	-12.650	0.076	-22.828	C.2	1	LIG1	0.000	
10	 C44	-11.812	1.110	-23.151	C.2	1	LIG1	0.000	
11	 C45	-10.777	-1.332	-22.322	C.2	1	LIG1	0.000	
12	 C46	-2.582	1.428	-20.222	C.2	1	LIG1	0.000	
13	 C47	-3.298	1.071	-21.346	C.2	1	LIG1	0.000	
14	 C48	-12.151	-1.137	-22.406	C.2	1	LIG1	0.000	
15	 C49	-10.454	0.920	-23.128	C.2	1	LIG1	0.000	
16	 C50	-9.917	-0.328	-22.749	C.2	1	LIG1	0.000	
17	 C51	-4.811	0.216	-17.495	C.2	1	LIG1	0.000	
18	 C52	-3.075	1.147	-18.956	C.2	1	LIG1	0.000	
19	 C53	-4.494	0.451	-21.206	C.2	1	LIG1	0.000	
20	 C54	-6.264	-0.475	-19.703	C.2	1	LIG1	0.000	
21	 C55	-4.286	0.518	-18.782	C.2	1	LIG1	0.000	
22	 C56	-5.010	0.167	-19.921	C.2	1	LIG1	0.000	
23	 N57	-7.030	-0.799	-20.800	N.pl3	1	LIG1	0.000	
24	 N58	-8.181	1.720	-23.741	N.pl3	1	LIG1	0.000	
25	 C59	-7.270	2.758	-24.106	C.3	1	LIG1	0.000	
26	 C60	-7.709	-2.617	-23.862	C.3	1	LIG1	0.000	
27	 C61	-6.929	-2.011	-21.531	C.3	1	LIG1	0.000	
28	 C62	-4.448	4.331	-24.911	C.3	1	LIG1	0.000	
29	 C63	-4.332	4.774	-21.305	C.3	1	LIG1	0.000	
30	 C64	-5.611	6.562	-24.402	C.3	1	LIG1	0.000	
31	 C65	-5.717	6.750	-21.960	C.3	1	LIG1	0.000	
32	 C66	-7.730	0.372	-23.756	C.3	1	LIG1	0.000	
33	 C67	-6.603	3.330	-22.916	C.3	1	LIG1	0.000	
34	 C68	-7.973	-1.902	-22.623	C.3	1	LIG1	0.000	
35	 C69	-5.583	5.049	-24.342	C.3	1	LIG1	0.000	
36	 C70	-5.613	5.270	-21.832	C.3	1	LIG1	0.000	
37	 C71	-8.430	-0.479	-22.645	C.3	1	LIG1	0.000	
38	 N72	-6.097	4.653	-23.059	N.3	1	LIG1	0.000	
@<TRIPOS>BOND
1 4 17 ar
2 5 31 1
3 2 6 2
4 3 7 2
5 7 23 1
6 4 8 ar
7 9 10 ar
8 10 15 ar
9 11 14 ar
10 12 13 ar
11 13 19 ar
12 1 14 1
13 9 14 ar
14 6 15 1
15 11 16 ar
16 15 16 ar
17 17 21 ar
18 12 18 ar
19 19 22 ar
20 8 20 ar
21 20 22 ar
22 18 21 ar
23 21 22 ar
24 20 23 1
25 23 27 1
26 6 24 1
27 24 32 1
28 24 25 1
29 27 34 1
30 28 35 1
31 5 30 1
32 31 36 1
33 32 37 1
34 25 33 1
35 26 34 1
36 30 35 1
37 35 38 1
38 29 36 1
39 36 38 1
40 7 37 1
41 16 37 1
42 34 37 1
43 33 38 1
@<TRIPOS>SUBSTRUCTURE
1	LIG1	1	GROUP	1 C	LIG
