# created with PyMOL 3.1.3.1
@<TRIPOS>MOLECULE
predicted
31 34 1                 
SMALL
USER_CHARGES
@<TRIPOS>ATOM
1	CL25	13.935	-1.241	21.819	Cl	1	LIG1	0.000	
2	 N22	6.288	-4.596	20.106	N.3	1	LIG1	0.000	
3	 O23	5.732	-5.185	24.974	O.2	1	LIG1	0.000	
4	 O24	9.047	0.487	21.423	O.2	1	LIG1	0.000	
5	 C26	6.788	-5.566	21.017	C.3	1	LIG1	0.000	
6	 N27	6.643	0.307	17.566	N.2	1	LIG1	0.000	
7	 C28	6.272	-4.308	24.448	C.2	1	LIG1	0.000	
8	 C29	8.460	-0.543	21.603	C.2	1	LIG1	0.000	
9	 C30	7.195	-0.325	18.563	C.2	1	LIG1	0.000	
10	 C31	12.792	-2.208	23.993	C.2	1	LIG1	0.000	
11	 C32	11.706	-2.540	24.764	C.2	1	LIG1	0.000	
12	 C33	11.320	-1.422	22.313	C.2	1	LIG1	0.000	
13	 C34	3.534	2.309	20.601	C.2	1	LIG1	0.000	
14	 C35	4.130	1.678	21.659	C.2	1	LIG1	0.000	
15	 C36	12.582	-1.637	22.771	C.2	1	LIG1	0.000	
16	 C37	10.410	-2.313	24.300	C.2	1	LIG1	0.000	
17	 C38	10.205	-1.688	23.082	C.2	1	LIG1	0.000	
18	 C39	5.584	1.085	17.775	C.2	1	LIG1	0.000	
19	 C40	4.000	2.134	19.320	C.2	1	LIG1	0.000	
20	 C41	5.194	0.858	21.464	C.2	1	LIG1	0.000	
21	 C42	6.792	-0.174	19.870	C.2	1	LIG1	0.000	
22	 C43	5.081	1.303	19.071	C.2	1	LIG1	0.000	
23	 C44	5.688	0.653	20.146	C.2	1	LIG1	0.000	
24	 N45	7.370	-0.931	20.895	N.pl3	1	LIG1	0.000	
25	 N46	6.544	-4.424	23.106	N.pl3	1	LIG1	0.000	
26	 C47	6.018	-5.541	22.305	C.3	1	LIG1	0.000	
27	 C48	6.808	-3.066	25.150	C.3	1	LIG1	0.000	
28	 C49	9.212	-2.670	25.199	C.3	1	LIG1	0.000	
29	 C50	7.818	-1.520	23.713	C.3	1	LIG1	0.000	
30	 C51	8.823	-1.544	22.581	C.3	1	LIG1	0.000	
31	 N52	7.944	-2.693	24.476	N.3	1	LIG1	0.000	
@<TRIPOS>BOND
1 2 5 1
2 5 26 1
3 6 18 ar
4 3 7 2
5 7 27 1
6 4 8 2
7 8 24 1
8 6 9 ar
9 10 15 ar
10 10 11 ar
11 12 17 ar
12 13 14 ar
13 14 20 ar
14 1 15 1
15 12 15 ar
16 11 16 ar
17 16 17 ar
18 17 30 1
19 18 22 ar
20 13 19 ar
21 20 23 ar
22 9 21 ar
23 21 23 ar
24 19 22 ar
25 22 23 ar
26 21 24 1
27 7 25 1
28 25 26 1
29 27 31 1
30 16 28 1
31 8 30 1
32 29 30 1
33 28 31 1
34 29 31 1
@<TRIPOS>SUBSTRUCTURE
1	LIG1	1	GROUP	1 C	LIG
