# created with PyMOL 3.1.3.1
@<TRIPOS>MOLECULE
predicted
34 35 1                 
SMALL
USER_CHARGES
@<TRIPOS>ATOM
1	 O36	11.929	2.954	24.056	O.co2	1	LIG1	0.000	
2	 O37	6.237	0.062	17.128	O.2	1	LIG1	0.000	
3	 O38	9.128	0.617	21.253	O.2	1	LIG1	0.000	
4	 O39	7.556	-2.018	22.708	O.2	1	LIG1	0.000	
5	 O43	12.031	4.238	22.157	O.3	1	LIG1	0.000	
6	 C44	11.429	3.327	22.980	C.2	1	LIG1	0.000	
7	 C45	5.688	-0.014	18.199	C.2	1	LIG1	0.000	
8	 C46	9.510	0.620	22.401	C.2	1	LIG1	0.000	
9	 C47	8.507	-2.183	21.952	C.2	1	LIG1	0.000	
10	 N48	4.589	0.702	18.545	N.pl3	1	LIG1	0.000	
11	 N49	8.354	-2.660	20.677	N.pl3	1	LIG1	0.000	
12	 N50	10.216	2.888	22.507	N.pl3	1	LIG1	0.000	
13	 N51	9.939	-0.558	22.995	N.pl3	1	LIG1	0.000	
14	 C52	13.331	4.631	22.535	C.3	1	LIG1	0.000	
15	 C53	7.185	2.554	22.205	C.3	1	LIG1	0.000	
16	 C54	8.043	3.669	24.282	C.3	1	LIG1	0.000	
17	 C55	7.281	1.285	24.324	C.3	1	LIG1	0.000	
18	 C56	4.267	0.428	19.904	C.3	1	LIG1	0.000	
19	 C57	5.082	-0.661	20.302	C.3	1	LIG1	0.000	
20	 C58	6.668	-2.155	18.984	C.3	1	LIG1	0.000	
21	 C59	12.711	-1.746	23.755	C.3	1	LIG1	0.000	
22	 C60	10.515	-0.675	24.288	C.3	1	LIG1	0.000	
23	 C61	7.990	2.349	23.490	C.3	1	LIG1	0.000	
24	 C62	10.537	-2.821	23.273	C.3	1	LIG1	0.000	
25	 C63	7.082	-4.490	19.749	C.2	1	LIG1	0.000	
26	 C64	6.136	-0.840	19.330	C.3	1	LIG1	0.000	
27	 C65	7.005	-3.066	20.194	C.3	1	LIG1	0.000	
28	 C66	11.289	-1.929	24.221	C.3	1	LIG1	0.000	
29	 C67	9.481	1.882	23.231	C.3	1	LIG1	0.000	
30	 C68	9.908	-1.801	22.312	C.3	1	LIG1	0.000	
31	 N69	6.376	-5.447	20.033	N.2	1	LIG1	0.000	
32	 F40	13.512	-2.393	24.601	 F	1	LIG1	0.000	
33	 F41	12.924	-2.278	22.533	 F	1	LIG1	0.000	
34	 F42	13.054	-0.461	23.677	 F	1	LIG1	0.000	
@<TRIPOS>BOND
1 5 6 1
2 1 6 2
3 6 12 1
4 2 7 2
5 3 8 2
6 8 13 1
7 4 9 2
8 9 11 1
9 7 10 1
10 11 27 1
11 12 29 1
12 13 22 1
13 13 30 1
14 5 14 1
15 10 18 1
16 18 19 1
17 20 26 1
18 21 32 1
19 21 33 1
20 21 34 1
21 22 28 1
22 15 23 1
23 16 23 1
24 17 23 1
25 24 30 1
26 25 31 2
27 7 26 1
28 19 26 1
29 20 27 1
30 25 27 1
31 21 28 1
32 24 28 1
33 8 29 1
34 23 29 1
35 9 30 1
@<TRIPOS>SUBSTRUCTURE
1	LIG1	1	GROUP	1 C	LIG
