# created with PyMOL 3.1.3.1
@<TRIPOS>MOLECULE
predicted
27 31 1                 
SMALL
USER_CHARGES
@<TRIPOS>ATOM
1	CL19	-9.441	-2.879	-26.875	Cl	1	LIG1	0.000	
2	 O17	-4.936	-2.918	-20.922	O.2	1	LIG1	0.000	
3	 O18	-8.041	0.387	-21.100	O.2	1	LIG1	0.000	
4	 N20	-5.608	0.184	-17.460	N.2	1	LIG1	0.000	
5	 C21	-5.913	-2.304	-21.303	C.2	1	LIG1	0.000	
6	 C22	-7.475	-0.672	-21.382	C.2	1	LIG1	0.000	
7	 C23	-6.191	-0.469	-18.429	C.2	1	LIG1	0.000	
8	 C24	-13.042	-2.685	-25.433	C.2	1	LIG1	0.000	
9	 C25	-12.823	-2.284	-24.145	C.2	1	LIG1	0.000	
10	 C26	-11.984	-2.846	-26.259	C.2	1	LIG1	0.000	
11	 C27	-11.578	-2.077	-23.695	C.2	1	LIG1	0.000	
12	 C28	-2.375	1.913	-20.553	C.2	1	LIG1	0.000	
13	 C29	-2.959	1.225	-21.571	C.2	1	LIG1	0.000	
14	 C30	-10.714	-2.656	-25.795	C.2	1	LIG1	0.000	
15	 C31	-10.483	-2.248	-24.511	C.2	1	LIG1	0.000	
16	 C32	-4.502	0.901	-17.702	C.2	1	LIG1	0.000	
17	 C33	-2.869	1.832	-19.289	C.2	1	LIG1	0.000	
18	 C34	-4.036	0.448	-21.331	C.2	1	LIG1	0.000	
19	 C35	-5.675	-0.479	-19.695	C.2	1	LIG1	0.000	
20	 C36	-3.970	1.030	-19.009	C.2	1	LIG1	0.000	
21	 C37	-4.560	0.337	-20.035	C.2	1	LIG1	0.000	
22	 N38	-6.318	-1.145	-20.759	N.pl3	1	LIG1	0.000	
23	 N39	-6.734	-2.628	-22.267	N.pl3	1	LIG1	0.000	
24	 C40	-8.080	-1.093	-23.762	C.3	1	LIG1	0.000	
25	 C41	-9.143	-2.278	-22.433	C.3	1	LIG1	0.000	
26	 C42	-9.126	-2.132	-24.052	C.3	1	LIG1	0.000	
27	 C43	-7.791	-1.640	-22.395	C.3	1	LIG1	0.000	
@<TRIPOS>BOND
1 2 5 2
2 4 16 ar
3 5 22 1
4 5 23 1
5 3 6 2
6 6 22 1
7 4 7 ar
8 8 10 ar
9 8 9 ar
10 10 14 ar
11 9 11 ar
12 12 13 ar
13 13 18 ar
14 1 14 1
15 11 15 ar
16 14 15 ar
17 16 20 ar
18 12 17 ar
19 18 21 ar
20 7 19 ar
21 19 21 ar
22 17 20 ar
23 20 21 ar
24 19 22 1
25 23 27 1
26 24 26 1
27 15 26 1
28 25 26 1
29 6 27 1
30 24 27 1
31 25 27 1
@<TRIPOS>SUBSTRUCTURE
1	LIG1	1	GROUP	1 C	LIG
