# created with PyMOL 3.1.3.1
@<TRIPOS>MOLECULE
predicted
31 35 1                 
SMALL
USER_CHARGES
@<TRIPOS>ATOM
1	CL31	13.842	-2.034	21.634	Cl	1	LIG1	0.000	
2	 O29	6.891	3.310	23.107	O.2	1	LIG1	0.000	
3	 O30	9.001	1.392	21.398	O.2	1	LIG1	0.000	
4	 N32	6.577	0.093	17.922	N.2	1	LIG1	0.000	
5	 C33	7.640	3.711	23.931	C.2	1	LIG1	0.000	
6	 C34	8.623	0.327	21.890	C.2	1	LIG1	0.000	
7	 C35	7.265	-0.328	18.962	C.2	1	LIG1	0.000	
8	 C36	5.438	0.779	18.097	C.2	1	LIG1	0.000	
9	 C37	13.429	0.137	23.122	C.2	1	LIG1	0.000	
10	 C38	12.663	1.015	23.814	C.2	1	LIG1	0.000	
11	 C39	11.439	-1.056	22.437	C.2	1	LIG1	0.000	
12	 C40	12.812	-0.911	22.432	C.2	1	LIG1	0.000	
13	 C41	6.869	-0.039	20.270	C.2	1	LIG1	0.000	
14	 C42	4.969	1.111	19.385	C.2	1	LIG1	0.000	
15	 C43	5.685	0.695	20.511	C.2	1	LIG1	0.000	
16	 C44	11.279	0.878	23.817	C.2	1	LIG1	0.000	
17	 C45	10.652	-0.203	23.181	C.2	1	LIG1	0.000	
18	 N46	8.129	4.904	23.845	N.pl3	1	LIG1	0.000	
19	 N47	7.645	-0.434	21.352	N.pl3	1	LIG1	0.000	
20	 C48	7.673	5.820	22.835	C.3	1	LIG1	0.000	
21	 C49	3.815	1.837	19.573	C.2	1	LIG1	0.000	
22	 C50	5.214	1.020	21.805	C.2	1	LIG1	0.000	
23	 C51	7.527	-1.706	22.038	C.3	1	LIG1	0.000	
24	 C52	3.365	2.150	20.848	C.2	1	LIG1	0.000	
25	 C53	4.072	1.728	21.968	C.2	1	LIG1	0.000	
26	 C54	8.643	-1.677	23.126	C.3	1	LIG1	0.000	
27	 C55	8.212	2.772	24.989	C.3	1	LIG1	0.000	
28	 C56	10.475	1.883	24.635	C.3	1	LIG1	0.000	
29	 C57	8.529	0.465	24.349	C.3	1	LIG1	0.000	
30	 C58	9.167	-0.290	23.150	C.3	1	LIG1	0.000	
31	 N59	9.015	1.854	24.272	N.3	1	LIG1	0.000	
@<TRIPOS>BOND
1 4 8 ar
2 2 5 2
3 5 27 1
4 3 6 2
5 4 7 ar
6 8 14 ar
7 9 12 ar
8 9 10 ar
9 11 17 ar
10 1 12 1
11 11 12 ar
12 7 13 ar
13 13 15 ar
14 14 15 ar
15 14 21 ar
16 15 22 ar
17 10 16 ar
18 16 17 ar
19 17 30 1
20 5 18 1
21 6 19 1
22 13 19 1
23 18 20 1
24 22 25 ar
25 19 23 1
26 21 24 ar
27 24 25 ar
28 23 26 1
29 27 31 1
30 16 28 1
31 6 30 1
32 26 30 1
33 29 30 1
34 28 31 1
35 29 31 1
@<TRIPOS>SUBSTRUCTURE
1	LIG1	1	GROUP	1 C	LIG
