# created with PyMOL 3.1.3.1
@<TRIPOS>MOLECULE
predicted
26 29 1                 
SMALL
USER_CHARGES
@<TRIPOS>ATOM
1	CL19	-13.336	-1.905	-22.205	Cl	1	LIG1	0.000	
2	 O17	-7.925	1.162	-24.645	O.2	1	LIG1	0.000	
3	 O18	-8.162	-0.164	-20.817	O.2	1	LIG1	0.000	
4	 N20	-5.955	-0.268	-17.177	N.2	1	LIG1	0.000	
5	 C21	-8.111	0.072	-24.159	C.2	1	LIG1	0.000	
6	 C22	-7.642	-1.181	-21.147	C.2	1	LIG1	0.000	
7	 C23	-6.500	-0.925	-18.188	C.2	1	LIG1	0.000	
8	 C24	-11.822	-0.233	-23.584	C.2	1	LIG1	0.000	
9	 C25	-10.622	0.245	-24.043	C.2	1	LIG1	0.000	
10	 C26	-10.675	-1.890	-22.317	C.2	1	LIG1	0.000	
11	 C27	-2.597	1.384	-20.100	C.2	1	LIG1	0.000	
12	 C28	-3.156	0.722	-21.144	C.2	1	LIG1	0.000	
13	 C29	-11.852	-1.300	-22.730	C.2	1	LIG1	0.000	
14	 C30	-9.430	-0.351	-23.653	C.2	1	LIG1	0.000	
15	 C31	-9.454	-1.465	-22.816	C.2	1	LIG1	0.000	
16	 C32	-4.857	0.442	-17.350	C.2	1	LIG1	0.000	
17	 C33	-3.137	1.312	-18.847	C.2	1	LIG1	0.000	
18	 C34	-4.255	-0.031	-20.970	C.2	1	LIG1	0.000	
19	 C35	-5.990	-0.900	-19.459	C.2	1	LIG1	0.000	
20	 C36	-4.270	0.549	-18.628	C.2	1	LIG1	0.000	
21	 C37	-4.844	-0.133	-19.702	C.2	1	LIG1	0.000	
22	 N38	-6.578	-1.629	-20.513	N.pl3	1	LIG1	0.000	
23	 N39	-7.029	-0.771	-24.021	N.pl3	1	LIG1	0.000	
24	 C40	-5.772	-0.421	-24.576	C.3	1	LIG1	0.000	
25	 C41	-7.180	-2.083	-23.406	C.3	1	LIG1	0.000	
26	 C42	-8.179	-2.057	-22.298	C.3	1	LIG1	0.000	
@<TRIPOS>BOND
1 4 16 ar
2 2 5 2
3 3 6 2
4 6 22 1
5 4 7 ar
6 8 9 ar
7 9 14 ar
8 10 13 ar
9 11 12 ar
10 12 18 ar
11 1 13 1
12 8 13 ar
13 5 14 1
14 10 15 ar
15 14 15 ar
16 16 20 ar
17 11 17 ar
18 18 21 ar
19 7 19 ar
20 19 21 ar
21 17 20 ar
22 20 21 ar
23 19 22 1
24 5 23 1
25 23 25 1
26 23 24 1
27 25 26 1
28 6 26 1
29 15 26 1
@<TRIPOS>SUBSTRUCTURE
1	LIG1	1	GROUP	1 C	LIG
