# created with PyMOL 3.1.3.1
@<TRIPOS>MOLECULE
predicted
24 27 1                 
SMALL
USER_CHARGES
@<TRIPOS>ATOM
1	CL17	13.845	-1.393	21.477	Cl	1	LIG1	0.000	
2	 O16	9.095	0.305	21.481	O.2	1	LIG1	0.000	
3	 N18	6.830	0.371	17.757	N.2	1	LIG1	0.000	
4	 O19	9.583	-3.139	25.075	O.3	1	LIG1	0.000	
5	 C20	8.438	-0.656	21.778	C.2	1	LIG1	0.000	
6	 C21	7.348	-0.306	18.786	C.2	1	LIG1	0.000	
7	 C22	12.859	-2.666	23.636	C.3	1	LIG1	0.000	
8	 C23	11.852	-3.088	24.483	C.3	1	LIG1	0.000	
9	 C24	11.287	-1.541	22.252	C.3	1	LIG1	0.000	
10	 C25	3.442	2.125	20.602	C.2	1	LIG1	0.000	
11	 C26	3.962	1.452	21.672	C.2	1	LIG1	0.000	
12	 C27	12.578	-1.897	22.535	C.3	1	LIG1	0.000	
13	 C28	10.555	-2.731	24.224	C.3	1	LIG1	0.000	
14	 C29	10.236	-1.910	23.088	C.3	1	LIG1	0.000	
15	 C30	5.743	1.117	17.903	C.2	1	LIG1	0.000	
16	 C31	4.010	2.034	19.353	C.2	1	LIG1	0.000	
17	 C32	5.068	0.676	21.536	C.2	1	LIG1	0.000	
18	 C33	6.799	-0.250	20.060	C.2	1	LIG1	0.000	
19	 C34	5.132	1.250	19.170	C.2	1	LIG1	0.000	
20	 C35	5.661	0.556	20.266	C.2	1	LIG1	0.000	
21	 N36	7.326	-1.034	21.134	N.pl3	1	LIG1	0.000	
22	 C37	8.295	-2.699	24.999	C.3	1	LIG1	0.000	
23	 C38	7.937	-1.724	23.974	C.3	1	LIG1	0.000	
24	 C39	8.831	-1.629	22.879	C.3	1	LIG1	0.000	
@<TRIPOS>BOND
1 2 5 2
2 3 15 ar
3 4 13 1
4 5 21 1
5 5 24 1
6 3 6 ar
7 7 12 1
8 7 8 1
9 9 14 1
10 10 11 ar
11 11 17 ar
12 1 12 1
13 9 12 1
14 8 13 1
15 13 14 1
16 15 19 ar
17 10 16 ar
18 17 20 ar
19 6 18 ar
20 18 20 ar
21 16 19 ar
22 19 20 ar
23 18 21 1
24 4 22 1
25 22 23 1
26 14 24 1
27 23 24 1
@<TRIPOS>SUBSTRUCTURE
1	LIG1	1	GROUP	1 C	LIG
