# created with PyMOL 3.1.3.1
@<TRIPOS>MOLECULE
predicted
35 40 1                 
SMALL
USER_CHARGES
@<TRIPOS>ATOM
1	 O24	10.864	2.124	24.288	O.2	1	LIG1	0.000	
2	 O25	8.980	0.269	21.335	O.2	1	LIG1	0.000	
3	 N27	6.130	2.985	23.877	N.2	1	LIG1	0.000	
4	 N28	6.470	-0.842	17.881	N.2	1	LIG1	0.000	
5	 O29	6.787	3.529	21.854	O.2	1	LIG1	0.000	
6	 C30	10.365	0.993	24.143	C.2	1	LIG1	0.000	
7	 C31	8.529	-0.749	21.828	C.2	1	LIG1	0.000	
8	 C32	5.775	3.552	22.717	C.2	1	LIG1	0.000	
9	 C33	7.161	-1.249	18.936	C.2	1	LIG1	0.000	
10	 C34	7.400	2.572	23.769	C.2	1	LIG1	0.000	
11	 C35	7.849	2.944	22.520	C.2	1	LIG1	0.000	
12	 C36	13.313	-1.159	23.255	C.2	1	LIG1	0.000	
13	 C37	12.567	-0.077	23.660	C.2	1	LIG1	0.000	
14	 C38	11.300	-2.391	22.710	C.2	1	LIG1	0.000	
15	 C39	3.004	0.885	20.757	C.2	1	LIG1	0.000	
16	 C40	3.704	0.456	21.883	C.2	1	LIG1	0.000	
17	 C41	12.703	-2.306	22.777	C.2	1	LIG1	0.000	
18	 C42	11.174	-0.143	23.651	C.2	1	LIG1	0.000	
19	 C43	10.516	-1.333	23.217	C.2	1	LIG1	0.000	
20	 C44	5.285	-0.232	18.042	C.2	1	LIG1	0.000	
21	 C45	3.528	0.653	19.490	C.2	1	LIG1	0.000	
22	 C46	4.906	-0.176	21.750	C.2	1	LIG1	0.000	
23	 C47	6.712	-1.053	20.248	C.2	1	LIG1	0.000	
24	 C48	4.746	0.015	19.325	C.2	1	LIG1	0.000	
25	 C49	5.456	-0.403	20.466	C.2	1	LIG1	0.000	
26	 N50	7.480	-1.452	21.335	N.pl3	1	LIG1	0.000	
27	 N51	8.980	0.822	24.358	N.pl3	1	LIG1	0.000	
28	 C52	4.443	4.139	22.380	C.3	1	LIG1	0.000	
29	 C53	8.191	1.890	24.892	C.3	1	LIG1	0.000	
30	 C54	8.213	-3.489	24.302	C.3	1	LIG1	0.000	
31	 C55	7.273	-2.668	22.050	C.3	1	LIG1	0.000	
32	 C56	8.395	-0.524	24.303	C.3	1	LIG1	0.000	
33	 C57	8.411	-2.738	23.057	C.3	1	LIG1	0.000	
34	 C58	9.012	-1.356	23.146	C.3	1	LIG1	0.000	
35	 F26	13.474	-3.319	22.394	 F	1	LIG1	0.000	
@<TRIPOS>BOND
1 3 10 ar
2 4 20 ar
3 1 6 2
4 2 7 2
5 7 26 1
6 3 8 ar
7 5 8 ar
8 4 9 ar
9 10 11 ar
10 10 29 1
11 5 11 ar
12 12 13 ar
13 13 18 ar
14 14 17 ar
15 15 16 ar
16 16 22 ar
17 12 17 ar
18 17 35 1
19 6 18 1
20 14 19 ar
21 18 19 ar
22 20 24 ar
23 15 21 ar
24 22 25 ar
25 9 23 ar
26 23 25 ar
27 21 24 ar
28 24 25 ar
29 23 26 1
30 26 31 1
31 6 27 1
32 27 32 1
33 8 28 1
34 27 29 1
35 31 33 1
36 32 34 1
37 30 33 1
38 7 34 1
39 19 34 1
40 33 34 1
@<TRIPOS>SUBSTRUCTURE
1	LIG1	1	GROUP	1 C	LIG
