# created with PyMOL 3.1.3.1
@<TRIPOS>MOLECULE
predicted
34 39 1                 
SMALL
USER_CHARGES
@<TRIPOS>ATOM
1	CL25	13.478	-3.199	22.428	Cl	1	LIG1	0.000	
2	 O23	10.359	2.429	24.249	O.2	1	LIG1	0.000	
3	 O24	8.728	0.457	21.307	O.2	1	LIG1	0.000	
4	 N26	6.419	-0.777	17.815	N.2	1	LIG1	0.000	
5	 N27	5.627	2.958	23.698	N.2	1	LIG1	0.000	
6	 C28	9.934	1.271	24.134	C.2	1	LIG1	0.000	
7	 C29	8.280	-0.557	21.837	C.2	1	LIG1	0.000	
8	 C30	7.063	-1.176	18.891	C.2	1	LIG1	0.000	
9	 C31	6.910	2.727	23.697	C.2	1	LIG1	0.000	
10	 C32	13.006	-0.734	23.316	C.2	1	LIG1	0.000	
11	 C33	12.201	0.316	23.687	C.2	1	LIG1	0.000	
12	 C34	11.050	-2.079	22.797	C.2	1	LIG1	0.000	
13	 C35	2.852	0.959	20.550	C.2	1	LIG1	0.000	
14	 C36	3.504	0.550	21.698	C.2	1	LIG1	0.000	
15	 C37	7.460	3.199	22.555	C.2	1	LIG1	0.000	
16	 C38	12.438	-1.919	22.869	C.2	1	LIG1	0.000	
17	 C39	10.816	0.166	23.672	C.2	1	LIG1	0.000	
18	 C40	10.241	-1.047	23.262	C.2	1	LIG1	0.000	
19	 C41	5.228	-0.159	17.921	C.2	1	LIG1	0.000	
20	 C42	3.423	0.736	19.305	C.2	1	LIG1	0.000	
21	 C43	4.712	-0.071	21.600	C.2	1	LIG1	0.000	
22	 C44	6.575	-0.919	20.170	C.2	1	LIG1	0.000	
23	 C45	6.392	3.715	21.804	C.2	1	LIG1	0.000	
24	 C46	4.646	0.101	19.181	C.2	1	LIG1	0.000	
25	 C47	5.309	-0.300	20.341	C.2	1	LIG1	0.000	
26	 N48	7.295	-1.296	21.291	N.pl3	1	LIG1	0.000	
27	 N49	8.564	1.020	24.372	N.pl3	1	LIG1	0.000	
28	 N50	5.329	3.556	22.516	N.2	1	LIG1	0.000	
29	 C51	7.689	2.073	24.856	C.3	1	LIG1	0.000	
30	 C52	4.026	3.996	22.146	C.3	1	LIG1	0.000	
31	 C53	7.120	-2.540	22.008	C.3	1	LIG1	0.000	
32	 C54	8.042	-0.342	24.324	C.3	1	LIG1	0.000	
33	 C55	8.178	-2.484	23.135	C.3	1	LIG1	0.000	
34	 C56	8.739	-1.120	23.158	C.3	1	LIG1	0.000	
@<TRIPOS>BOND
1 4 19 ar
2 2 6 2
3 3 7 2
4 4 8 ar
5 5 9 ar
6 9 29 1
7 10 11 ar
8 11 17 ar
9 12 16 ar
10 13 14 ar
11 14 21 ar
12 9 15 ar
13 1 16 1
14 10 16 ar
15 6 17 1
16 12 18 ar
17 17 18 ar
18 19 24 ar
19 13 20 ar
20 21 25 ar
21 8 22 ar
22 22 25 ar
23 15 23 ar
24 20 24 ar
25 24 25 ar
26 7 26 1
27 22 26 1
28 6 27 1
29 27 32 1
30 5 28 ar
31 23 28 ar
32 27 29 1
33 28 30 1
34 26 31 1
35 32 34 1
36 31 33 1
37 7 34 1
38 18 34 1
39 33 34 1
@<TRIPOS>SUBSTRUCTURE
1	LIG1	1	GROUP	1 C	LIG
