# created with PyMOL 3.1.3.1
@<TRIPOS>MOLECULE
predicted
24 27 1                 
SMALL
USER_CHARGES
@<TRIPOS>ATOM
1	 O21	8.782	0.165	21.538	O.2	1	LIG1	0.000	
2	 N22	6.489	-0.642	17.965	N.2	1	LIG1	0.000	
3	 S23	13.618	-2.228	23.378	S.2	1	LIG1	0.000	
4	 C24	8.672	-0.981	21.933	C.2	1	LIG1	0.000	
5	 C25	7.170	-1.285	18.928	C.2	1	LIG1	0.000	
6	 C26	13.890	-0.612	23.837	C.2	1	LIG1	0.000	
7	 C27	11.944	-2.090	23.438	C.2	1	LIG1	0.000	
8	 C28	12.705	0.091	23.967	C.2	1	LIG1	0.000	
9	 C29	3.455	1.100	21.186	C.2	1	LIG1	0.000	
10	 C30	4.134	0.467	22.187	C.2	1	LIG1	0.000	
11	 C31	11.607	-0.747	23.726	C.2	1	LIG1	0.000	
12	 C32	5.409	0.050	18.229	C.2	1	LIG1	0.000	
13	 C33	3.859	0.976	19.872	C.2	1	LIG1	0.000	
14	 C34	5.251	-0.277	21.930	C.2	1	LIG1	0.000	
15	 C35	6.814	-1.236	20.267	C.2	1	LIG1	0.000	
16	 C36	4.976	0.206	19.564	C.2	1	LIG1	0.000	
17	 C37	5.679	-0.443	20.606	C.2	1	LIG1	0.000	
18	 N38	9.397	-1.360	23.027	N.pl3	1	LIG1	0.000	
19	 C39	7.648	-1.950	21.300	C.3	1	LIG1	0.000	
20	 C40	8.228	0.298	25.158	C.3	1	LIG1	0.000	
21	 C41	10.933	-3.156	23.088	C.3	1	LIG1	0.000	
22	 C42	9.530	-2.743	23.408	C.3	1	LIG1	0.000	
23	 C43	9.636	-0.232	25.192	C.3	1	LIG1	0.000	
24	 C44	10.180	-0.377	23.765	C.3	1	LIG1	0.000	
@<TRIPOS>BOND
1 2 12 ar
2 3 7 ar
3 1 4 2
4 4 19 1
5 2 5 ar
6 3 6 ar
7 7 21 1
8 6 8 ar
9 9 10 ar
10 10 14 ar
11 7 11 ar
12 8 11 ar
13 12 16 ar
14 9 13 ar
15 14 17 ar
16 5 15 ar
17 15 17 ar
18 13 16 ar
19 16 17 ar
20 4 18 1
21 15 19 1
22 20 23 1
23 21 22 1
24 18 22 1
25 23 24 1
26 11 24 1
27 18 24 1
@<TRIPOS>SUBSTRUCTURE
1	LIG1	1	GROUP	1 C	LIG
