# created with PyMOL 3.1.3.1
@<TRIPOS>MOLECULE
predicted
17 19 1                 
SMALL
USER_CHARGES
@<TRIPOS>ATOM
1	 O19	9.030	1.177	20.976	O.2	1	LIG1	0.000	
2	 N20	6.572	0.352	17.639	N.2	1	LIG1	0.000	
3	 C21	8.561	0.258	21.576	C.2	1	LIG1	0.000	
4	 C22	5.405	0.935	17.743	C.2	1	LIG1	0.000	
5	 C23	7.243	-0.080	18.738	C.2	1	LIG1	0.000	
6	 C24	4.846	1.175	18.985	C.2	1	LIG1	0.000	
7	 C25	6.733	0.107	19.993	C.2	1	LIG1	0.000	
8	 C26	5.504	0.734	20.106	C.2	1	LIG1	0.000	
9	 N27	7.441	-0.361	21.145	N.pl3	1	LIG1	0.000	
10	 C28	4.901	0.987	21.460	C.3	1	LIG1	0.000	
11	 C29	9.117	-0.303	22.894	C.3	1	LIG1	0.000	
12	 C30	11.193	-1.707	22.348	C.3	1	LIG1	0.000	
13	 C31	11.575	0.361	23.203	C.3	1	LIG1	0.000	
14	 C32	13.692	-1.212	23.039	C.3	1	LIG1	0.000	
15	 C33	10.596	-0.527	22.784	C.3	1	LIG1	0.000	
16	 C34	12.597	-1.482	22.296	C.3	1	LIG1	0.000	
17	 C35	12.839	-0.158	22.849	C.3	1	LIG1	0.000	
@<TRIPOS>BOND
1 2 5 ar
2 1 3 2
3 3 11 1
4 2 4 ar
5 5 7 ar
6 4 6 ar
7 7 9 1
8 6 8 ar
9 7 8 ar
10 3 9 1
11 8 10 1
12 11 15 1
13 13 17 1
14 14 16 1
15 12 15 1
16 13 15 1
17 12 16 1
18 14 17 1
19 16 17 1
@<TRIPOS>SUBSTRUCTURE
1	LIG1	1	GROUP	1 C	LIG
