# created with PyMOL 3.1.3.1
@<TRIPOS>MOLECULE
predicted
22 24 1                 
SMALL
USER_CHARGES
@<TRIPOS>ATOM
1	 O19	8.845	0.324	21.387	O.2	1	LIG1	0.000	
2	 N22	6.584	-0.658	17.852	N.2	1	LIG1	0.000	
3	 C23	8.711	-0.788	21.817	C.2	1	LIG1	0.000	
4	 C24	7.263	-1.213	18.852	C.2	1	LIG1	0.000	
5	 C25	3.462	1.147	20.913	C.2	1	LIG1	0.000	
6	 C26	4.133	0.611	21.955	C.2	1	LIG1	0.000	
7	 C27	5.511	0.010	18.068	C.2	1	LIG1	0.000	
8	 C28	3.898	0.969	19.625	C.2	1	LIG1	0.000	
9	 C29	5.263	-0.107	21.749	C.2	1	LIG1	0.000	
10	 C30	6.862	-1.092	20.121	C.2	1	LIG1	0.000	
11	 C31	5.024	0.237	19.361	C.2	1	LIG1	0.000	
12	 C32	5.718	-0.330	20.450	C.2	1	LIG1	0.000	
13	 N33	9.455	-1.175	22.896	N.pl3	1	LIG1	0.000	
14	 C34	7.705	-1.722	21.225	C.3	1	LIG1	0.000	
15	 C35	13.329	-2.387	23.935	C.3	1	LIG1	0.000	
16	 C36	9.515	-2.528	23.366	C.3	1	LIG1	0.000	
17	 C37	10.234	-0.179	23.627	C.3	1	LIG1	0.000	
18	 C38	10.986	-2.954	23.275	C.3	1	LIG1	0.000	
19	 C39	11.682	-0.591	23.544	C.3	1	LIG1	0.000	
20	 C40	11.878	-1.986	23.984	C.3	1	LIG1	0.000	
21	 F20	13.546	-3.604	23.959	 F	1	LIG1	0.000	
22	 F21	14.082	-1.447	23.532	 F	1	LIG1	0.000	
@<TRIPOS>BOND
1 1 3 2
2 2 7 ar
3 3 13 1
4 3 14 1
5 2 4 ar
6 5 6 ar
7 6 9 ar
8 7 11 ar
9 5 8 ar
10 9 12 ar
11 4 10 ar
12 10 12 ar
13 8 11 ar
14 11 12 ar
15 13 16 1
16 13 17 1
17 10 14 1
18 15 21 1
19 15 22 1
20 16 18 1
21 18 20 1
22 17 19 1
23 15 20 1
24 19 20 1
@<TRIPOS>SUBSTRUCTURE
1	LIG1	1	GROUP	1 C	LIG
