# created with PyMOL 3.1.3.1
@<TRIPOS>MOLECULE
predicted
28 31 1                 
SMALL
USER_CHARGES
@<TRIPOS>ATOM
1	CL22	-13.879	-2.507	-20.679	Cl	1	LIG1	0.000	
2	 O20	-8.062	-3.037	-22.010	O.2	1	LIG1	0.000	
3	 O21	-9.316	0.773	-21.100	O.2	1	LIG1	0.000	
4	 N23	-6.938	0.361	-17.569	N.2	1	LIG1	0.000	
5	 O24	-10.770	-0.838	-25.297	O.3	1	LIG1	0.000	
6	 C25	-7.682	-2.383	-21.130	C.2	1	LIG1	0.000	
7	 C26	-8.960	-0.304	-21.552	C.2	1	LIG1	0.000	
8	 C27	-7.625	-0.267	-18.515	C.2	1	LIG1	0.000	
9	 C28	-13.492	-2.067	-23.300	C.2	1	LIG1	0.000	
10	 C29	-12.756	-1.687	-24.375	C.2	1	LIG1	0.000	
11	 C30	-11.635	-1.639	-21.834	C.2	1	LIG1	0.000	
12	 C31	-3.572	1.383	-20.753	C.2	1	LIG1	0.000	
13	 C32	-4.266	0.737	-21.745	C.2	1	LIG1	0.000	
14	 C33	-12.930	-2.040	-22.016	C.2	1	LIG1	0.000	
15	 C34	-11.452	-1.284	-24.195	C.2	1	LIG1	0.000	
16	 C35	-10.871	-1.202	-22.911	C.2	1	LIG1	0.000	
17	 C36	-5.768	0.903	-17.853	C.2	1	LIG1	0.000	
18	 C37	-4.060	1.445	-19.465	C.2	1	LIG1	0.000	
19	 C38	-5.450	0.155	-21.477	C.2	1	LIG1	0.000	
20	 C39	-7.226	-0.362	-19.832	C.2	1	LIG1	0.000	
21	 C40	-5.261	0.861	-19.158	C.2	1	LIG1	0.000	
22	 C41	-5.973	0.203	-20.154	C.2	1	LIG1	0.000	
23	 N42	-7.972	-1.038	-20.867	N.pl3	1	LIG1	0.000	
24	 C43	-7.846	-3.884	-19.140	C.3	1	LIG1	0.000	
25	 C44	-9.339	-0.622	-25.247	C.3	1	LIG1	0.000	
26	 C45	-6.903	-3.189	-20.133	C.3	1	LIG1	0.000	
27	 C46	-8.864	-0.116	-24.006	C.3	1	LIG1	0.000	
28	 C47	-9.472	-0.787	-22.821	C.3	1	LIG1	0.000	
@<TRIPOS>BOND
1 4 17 ar
2 5 15 1
3 2 6 2
4 6 23 1
5 3 7 2
6 7 28 1
7 4 8 ar
8 9 14 ar
9 9 10 ar
10 11 16 ar
11 12 13 ar
12 13 19 ar
13 1 14 1
14 11 14 ar
15 10 15 ar
16 15 16 ar
17 17 21 ar
18 12 18 ar
19 19 22 ar
20 8 20 ar
21 20 22 ar
22 18 21 ar
23 21 22 ar
24 7 23 1
25 20 23 1
26 24 26 1
27 5 25 1
28 6 26 1
29 25 27 1
30 16 28 1
31 27 28 1
@<TRIPOS>SUBSTRUCTURE
1	LIG1	1	GROUP	1 C	LIG
