# created with PyMOL 3.1.3.1
@<TRIPOS>MOLECULE
predicted
38 44 1                 
SMALL
USER_CHARGES
@<TRIPOS>ATOM
1	CL35	13.603	-3.416	22.306	Cl	1	LIG1	0.000	
2	 O33	10.582	2.121	24.444	O.2	1	LIG1	0.000	
3	 O34	8.855	0.377	21.420	O.2	1	LIG1	0.000	
4	 N36	6.451	-0.752	17.849	N.2	1	LIG1	0.000	
5	 O37	6.337	7.686	22.605	O.3	1	LIG1	0.000	
6	 C38	10.147	0.990	24.265	C.2	1	LIG1	0.000	
7	 C39	8.434	-0.673	21.867	C.2	1	LIG1	0.000	
8	 C40	7.114	-1.188	18.908	C.2	1	LIG1	0.000	
9	 C41	13.151	-1.015	23.361	C.2	1	LIG1	0.000	
10	 C42	12.368	0.022	23.798	C.2	1	LIG1	0.000	
11	 C43	11.184	-2.270	22.738	C.2	1	LIG1	0.000	
12	 C44	3.091	1.153	20.694	C.2	1	LIG1	0.000	
13	 C45	3.740	0.696	21.818	C.2	1	LIG1	0.000	
14	 C46	12.575	-2.150	22.830	C.2	1	LIG1	0.000	
15	 C47	10.999	-0.096	23.764	C.2	1	LIG1	0.000	
16	 C48	10.394	-1.266	23.266	C.2	1	LIG1	0.000	
17	 C49	5.303	-0.083	18.011	C.2	1	LIG1	0.000	
18	 C50	3.610	0.892	19.438	C.2	1	LIG1	0.000	
19	 C51	4.898	0.001	21.683	C.2	1	LIG1	0.000	
20	 C52	6.671	-0.965	20.212	C.2	1	LIG1	0.000	
21	 C53	4.781	0.191	19.285	C.2	1	LIG1	0.000	
22	 C54	5.454	-0.255	20.422	C.2	1	LIG1	0.000	
23	 N55	7.418	-1.380	21.303	N.pl3	1	LIG1	0.000	
24	 N56	8.796	0.775	24.433	N.pl3	1	LIG1	0.000	
25	 C57	6.575	6.398	21.748	C.3	1	LIG1	0.000	
26	 C58	6.375	6.834	23.839	C.3	1	LIG1	0.000	
27	 C59	7.942	1.803	24.869	C.3	1	LIG1	0.000	
28	 C60	4.993	4.919	23.008	C.3	1	LIG1	0.000	
29	 C61	6.363	5.653	22.972	C.3	1	LIG1	0.000	
30	 C62	8.100	-3.516	24.199	C.3	1	LIG1	0.000	
31	 C63	7.232	-2.615	21.990	C.3	1	LIG1	0.000	
32	 C64	8.261	-0.568	24.352	C.3	1	LIG1	0.000	
33	 C65	7.295	2.319	23.584	C.3	1	LIG1	0.000	
34	 C66	5.293	3.534	23.375	C.3	1	LIG1	0.000	
35	 C67	7.396	4.656	23.274	C.3	1	LIG1	0.000	
36	 C68	8.343	-2.696	22.998	C.3	1	LIG1	0.000	
37	 C69	8.897	-1.319	23.152	C.3	1	LIG1	0.000	
38	 N70	6.668	3.518	23.740	N.3	1	LIG1	0.000	
@<TRIPOS>BOND
1 4 17 ar
2 5 26 1
3 2 6 2
4 6 15 1
5 3 7 2
6 7 37 1
7 4 8 ar
8 9 14 ar
9 9 10 ar
10 11 16 ar
11 12 13 ar
12 13 19 ar
13 1 14 1
14 11 14 ar
15 10 15 ar
16 15 16 ar
17 17 21 ar
18 12 18 ar
19 19 22 ar
20 8 20 ar
21 20 22 ar
22 18 21 ar
23 21 22 ar
24 7 23 1
25 20 23 1
26 6 24 1
27 24 27 1
28 5 25 1
29 27 33 1
30 28 29 1
31 25 29 1
32 26 29 1
33 29 35 1
34 30 36 1
35 23 31 1
36 24 32 1
37 33 38 1
38 28 34 1
39 31 36 1
40 36 37 1
41 16 37 1
42 32 37 1
43 34 38 1
44 35 38 1
@<TRIPOS>SUBSTRUCTURE
1	LIG1	1	GROUP	1 C	LIG
