# created with PyMOL 3.1.3.1
@<TRIPOS>MOLECULE
predicted
31 34 1                 
SMALL
USER_CHARGES
@<TRIPOS>ATOM
1	CL23	13.875	-1.419	21.429	Cl	1	LIG1	0.000	
2	 O19	9.890	-2.763	26.529	O.2	1	LIG1	0.000	
3	 O20	6.880	-3.951	25.593	O.2	1	LIG1	0.000	
4	 O21	9.090	0.628	21.526	O.2	1	LIG1	0.000	
5	 N24	6.857	0.326	17.713	N.2	1	LIG1	0.000	
6	 C25	9.650	-2.161	25.492	C.2	1	LIG1	0.000	
7	 C26	7.105	-3.223	26.514	C.2	1	LIG1	0.000	
8	 C27	8.531	-0.401	21.795	C.2	1	LIG1	0.000	
9	 C28	7.417	-0.284	18.762	C.2	1	LIG1	0.000	
10	 C29	12.961	-2.120	23.813	C.2	1	LIG1	0.000	
11	 C30	11.987	-2.329	24.748	C.2	1	LIG1	0.000	
12	 C31	11.323	-1.353	22.287	C.2	1	LIG1	0.000	
13	 C32	4.013	1.288	21.685	C.2	1	LIG1	0.000	
14	 C33	3.435	1.914	20.591	C.2	1	LIG1	0.000	
15	 C34	12.615	-1.634	22.582	C.2	1	LIG1	0.000	
16	 C35	10.666	-2.007	24.468	C.2	1	LIG1	0.000	
17	 C36	10.316	-1.488	23.245	C.2	1	LIG1	0.000	
18	 C37	5.748	0.993	17.861	C.2	1	LIG1	0.000	
19	 C38	3.999	1.837	19.328	C.2	1	LIG1	0.000	
20	 C39	5.149	0.572	21.543	C.2	1	LIG1	0.000	
21	 C40	6.900	-0.225	20.034	C.2	1	LIG1	0.000	
22	 C41	5.139	1.112	19.137	C.2	1	LIG1	0.000	
23	 C42	5.720	0.487	20.249	C.2	1	LIG1	0.000	
24	 N43	7.485	-0.923	21.107	N.pl3	1	LIG1	0.000	
25	 N44	7.265	-3.633	27.751	N.pl3	1	LIG1	0.000	
26	 N45	8.420	-1.632	25.271	N.pl3	1	LIG1	0.000	
27	 C46	7.119	-4.990	28.097	C.3	1	LIG1	0.000	
28	 C47	7.417	-1.781	26.302	C.3	1	LIG1	0.000	
29	 C48	8.116	-0.860	24.143	C.3	1	LIG1	0.000	
30	 C49	8.892	-1.256	22.912	C.3	1	LIG1	0.000	
31	 F22	2.327	2.582	20.770	 F	1	LIG1	0.000	
@<TRIPOS>BOND
1 5 18 ar
2 2 6 2
3 3 7 2
4 7 28 1
5 4 8 2
6 8 24 1
7 5 9 ar
8 10 11 ar
9 11 16 ar
10 12 15 ar
11 13 20 ar
12 13 14 ar
13 14 31 1
14 1 15 1
15 10 15 ar
16 6 16 1
17 12 17 ar
18 16 17 ar
19 18 22 ar
20 14 19 ar
21 20 23 ar
22 9 21 ar
23 21 23 ar
24 19 22 ar
25 22 23 ar
26 21 24 1
27 7 25 1
28 6 26 1
29 26 29 1
30 25 27 1
31 26 28 1
32 29 30 1
33 8 30 1
34 17 30 1
@<TRIPOS>SUBSTRUCTURE
1	LIG1	1	GROUP	1 C	LIG
