# created with PyMOL 3.1.3.1
@<TRIPOS>MOLECULE
predicted
12 12 1                 
SMALL
USER_CHARGES
@<TRIPOS>ATOM
1	 N13	8.159	-2.889	21.472	N.2	1	LIG1	0.000	
2	 N14	6.273	-1.691	20.702	N.2	1	LIG1	0.000	
3	 O15	9.215	-2.312	23.403	O.3	1	LIG1	0.000	
4	 O16	5.424	0.111	21.878	O.3	1	LIG1	0.000	
5	 C17	7.174	-2.687	20.609	C.2	1	LIG1	0.000	
6	 C18	8.228	-2.061	22.516	C.2	1	LIG1	0.000	
7	 C19	6.358	-0.881	21.761	C.2	1	LIG1	0.000	
8	 C20	7.373	-1.005	22.710	C.2	1	LIG1	0.000	
9	 C21	10.192	-1.342	23.530	C.3	1	LIG1	0.000	
10	 C22	4.730	0.486	20.745	C.3	1	LIG1	0.000	
11	 C23	7.101	-3.622	19.437	C.3	1	LIG1	0.000	
12	 N24	6.196	-4.676	19.536	N.3	1	LIG1	0.000	
@<TRIPOS>BOND
1 2 5 ar
2 3 6 1
3 4 10 1
4 1 5 ar
5 5 11 1
6 1 6 ar
7 6 8 ar
8 2 7 ar
9 4 7 1
10 7 8 ar
11 3 9 1
12 11 12 1
@<TRIPOS>SUBSTRUCTURE
1	LIG1	1	GROUP	1 C	LIG
