# created with PyMOL 3.1.3.1
@<TRIPOS>MOLECULE
predicted
33 36 1                 
SMALL
USER_CHARGES
@<TRIPOS>ATOM
1	CL27	13.675	-2.794	21.167	Cl	1	LIG1	0.000	
2	 N25	5.832	-7.626	23.916	N.1	1	LIG1	0.000	
3	 O26	8.643	0.076	21.293	O.2	1	LIG1	0.000	
4	 C28	6.420	-7.014	24.612	C.1	1	LIG1	0.000	
5	 N29	6.344	-0.668	17.707	N.2	1	LIG1	0.000	
6	 C30	8.255	-1.014	21.774	C.2	1	LIG1	0.000	
7	 C31	6.939	-1.300	18.720	C.2	1	LIG1	0.000	
8	 C32	12.766	-2.301	25.060	C.2	1	LIG1	0.000	
9	 C33	13.437	-2.658	23.889	C.2	1	LIG1	0.000	
10	 C34	9.041	-3.772	23.373	C.2	1	LIG1	0.000	
11	 C35	7.336	-2.582	24.523	C.2	1	LIG1	0.000	
12	 C36	11.546	-1.627	24.945	C.2	1	LIG1	0.000	
13	 C37	11.665	-1.709	22.548	C.2	1	LIG1	0.000	
14	 C38	8.692	-4.936	24.006	C.2	1	LIG1	0.000	
15	 C39	6.962	-3.749	25.159	C.2	1	LIG1	0.000	
16	 C40	3.185	1.266	20.679	C.2	1	LIG1	0.000	
17	 C41	3.796	0.671	21.749	C.2	1	LIG1	0.000	
18	 C42	12.883	-2.366	22.643	C.2	1	LIG1	0.000	
19	 C43	8.373	-2.589	23.626	C.2	1	LIG1	0.000	
20	 C44	11.047	-1.299	23.695	C.2	1	LIG1	0.000	
21	 C45	7.659	-4.984	24.918	C.2	1	LIG1	0.000	
22	 C46	5.292	0.067	17.904	C.2	1	LIG1	0.000	
23	 C47	3.669	1.078	19.404	C.2	1	LIG1	0.000	
24	 C48	4.899	-0.143	21.585	C.2	1	LIG1	0.000	
25	 C49	6.515	-1.177	20.016	C.2	1	LIG1	0.000	
26	 C50	4.772	0.265	19.188	C.2	1	LIG1	0.000	
27	 C51	5.402	-0.360	20.273	C.2	1	LIG1	0.000	
28	 N52	8.730	-1.390	22.962	N.pl3	1	LIG1	0.000	
29	 C53	7.261	-1.914	21.109	C.3	1	LIG1	0.000	
30	 C54	9.730	-0.559	23.639	C.3	1	LIG1	0.000	
31	 C55	8.498	-7.067	25.901	C.3	1	LIG1	0.000	
32	 C56	6.491	-5.994	26.855	C.3	1	LIG1	0.000	
33	 C57	7.262	-6.264	25.569	C.3	1	LIG1	0.000	
@<TRIPOS>BOND
1 2 4 3
2 5 22 ar
3 3 6 2
4 6 29 1
5 5 7 ar
6 8 9 ar
7 9 18 ar
8 10 19 ar
9 11 15 ar
10 8 12 ar
11 10 14 ar
12 16 17 ar
13 17 24 ar
14 1 18 1
15 13 18 ar
16 11 19 ar
17 19 28 1
18 12 20 ar
19 13 20 ar
20 14 21 ar
21 15 21 ar
22 22 26 ar
23 16 23 ar
24 24 27 ar
25 7 25 ar
26 25 27 ar
27 23 26 ar
28 26 27 ar
29 6 28 1
30 28 30 1
31 25 29 1
32 20 30 1
33 31 33 1
34 4 33 1
35 21 33 1
36 32 33 1
@<TRIPOS>SUBSTRUCTURE
1	LIG1	1	GROUP	1 C	LIG
