# created with PyMOL 3.1.3.1
@<TRIPOS>MOLECULE
predicted
28 31 1                 
SMALL
USER_CHARGES
@<TRIPOS>ATOM
1	CL22	13.908	-0.958	20.650	Cl	1	LIG1	0.000	
2	 O20	7.954	-2.014	21.897	O.2	1	LIG1	0.000	
3	 O21	9.072	1.823	20.967	O.2	1	LIG1	0.000	
4	 N23	6.754	1.313	17.428	N.2	1	LIG1	0.000	
5	 O24	10.489	0.342	25.190	O.3	1	LIG1	0.000	
6	 C25	7.495	-1.356	21.036	C.2	1	LIG1	0.000	
7	 C26	8.745	0.739	21.421	C.2	1	LIG1	0.000	
8	 C27	7.429	0.692	18.389	C.2	1	LIG1	0.000	
9	 C28	13.396	-0.563	23.260	C.2	1	LIG1	0.000	
10	 C29	12.593	-0.270	24.314	C.2	1	LIG1	0.000	
11	 C30	11.537	-0.330	21.748	C.2	1	LIG1	0.000	
12	 C31	3.431	2.510	20.584	C.2	1	LIG1	0.000	
13	 C32	4.115	1.883	21.593	C.2	1	LIG1	0.000	
14	 C33	12.863	-0.589	21.966	C.2	1	LIG1	0.000	
15	 C34	11.248	-0.010	24.102	C.2	1	LIG1	0.000	
16	 C35	10.697	0.021	22.807	C.2	1	LIG1	0.000	
17	 C36	5.604	1.880	17.692	C.2	1	LIG1	0.000	
18	 C37	3.913	2.517	19.288	C.2	1	LIG1	0.000	
19	 C38	5.280	1.261	21.334	C.2	1	LIG1	0.000	
20	 C39	7.031	0.645	19.705	C.2	1	LIG1	0.000	
21	 C40	5.097	1.895	18.997	C.2	1	LIG1	0.000	
22	 C41	5.796	1.256	20.012	C.2	1	LIG1	0.000	
23	 N42	7.773	-0.015	20.750	N.pl3	1	LIG1	0.000	
24	 C43	7.411	-3.153	19.296	C.3	1	LIG1	0.000	
25	 C44	9.062	0.434	25.113	C.3	1	LIG1	0.000	
26	 C45	6.615	-2.161	20.137	C.3	1	LIG1	0.000	
27	 C46	8.556	0.864	23.860	C.3	1	LIG1	0.000	
28	 C47	9.269	0.296	22.686	C.3	1	LIG1	0.000	
@<TRIPOS>BOND
1 4 17 ar
2 5 15 1
3 2 6 2
4 6 23 1
5 3 7 2
6 7 28 1
7 4 8 ar
8 9 14 ar
9 9 10 ar
10 11 16 ar
11 12 13 ar
12 13 19 ar
13 1 14 1
14 11 14 ar
15 10 15 ar
16 15 16 ar
17 17 21 ar
18 12 18 ar
19 19 22 ar
20 8 20 ar
21 20 22 ar
22 18 21 ar
23 21 22 ar
24 7 23 1
25 20 23 1
26 24 26 1
27 5 25 1
28 6 26 1
29 25 27 1
30 16 28 1
31 27 28 1
@<TRIPOS>SUBSTRUCTURE
1	LIG1	1	GROUP	1 C	LIG
