# created with PyMOL 3.1.3.1
@<TRIPOS>MOLECULE
predicted
25 27 1                 
SMALL
USER_CHARGES
@<TRIPOS>ATOM
1	CL19	13.791	-2.133	21.846	Cl	1	LIG1	0.000	
2	 O17	3.783	0.489	24.111	O.2	1	LIG1	0.000	
3	 O18	9.013	0.859	21.083	O.2	1	LIG1	0.000	
4	 N20	6.512	0.200	17.746	N.2	1	LIG1	0.000	
5	 C21	3.227	1.538	23.996	C.2	1	LIG1	0.000	
6	 C22	8.447	-0.010	21.684	C.2	1	LIG1	0.000	
7	 C23	7.109	-0.281	18.828	C.2	1	LIG1	0.000	
8	 C24	12.304	0.906	23.896	C.2	1	LIG1	0.000	
9	 C25	13.186	0.033	23.290	C.2	1	LIG1	0.000	
10	 C26	10.932	0.690	23.828	C.2	1	LIG1	0.000	
11	 C27	11.344	-1.298	22.492	C.2	1	LIG1	0.000	
12	 C28	3.202	2.338	20.501	C.2	1	LIG1	0.000	
13	 C29	12.698	-1.060	22.595	C.2	1	LIG1	0.000	
14	 C30	3.799	1.883	21.633	C.2	1	LIG1	0.000	
15	 C31	10.486	-0.426	23.096	C.2	1	LIG1	0.000	
16	 C32	5.407	0.920	17.855	C.2	1	LIG1	0.000	
17	 C33	3.726	2.034	19.252	C.2	1	LIG1	0.000	
18	 C34	4.930	1.101	21.531	C.2	1	LIG1	0.000	
19	 C35	6.650	-0.029	20.110	C.2	1	LIG1	0.000	
20	 C36	4.860	1.260	19.113	C.2	1	LIG1	0.000	
21	 C37	5.466	0.774	20.284	C.2	1	LIG1	0.000	
22	 N38	3.229	2.254	22.854	N.pl3	1	LIG1	0.000	
23	 N39	7.275	-0.538	21.279	N.pl3	1	LIG1	0.000	
24	 C40	2.472	2.118	25.190	C.3	1	LIG1	0.000	
25	 C41	8.982	-0.633	22.991	C.3	1	LIG1	0.000	
@<TRIPOS>BOND
1 4 7 ar
2 2 5 2
3 5 22 1
4 3 6 2
5 6 25 1
6 7 19 ar
7 8 9 ar
8 9 13 ar
9 8 10 ar
10 12 17 ar
11 1 13 1
12 11 13 ar
13 12 14 ar
14 14 18 ar
15 10 15 ar
16 11 15 ar
17 4 16 ar
18 17 20 ar
19 19 21 ar
20 19 23 1
21 16 20 ar
22 20 21 ar
23 18 21 ar
24 14 22 1
25 6 23 1
26 5 24 1
27 15 25 1
@<TRIPOS>SUBSTRUCTURE
1	LIG1	1	GROUP	1 C	LIG
