# created with PyMOL 3.1.3.1
@<TRIPOS>MOLECULE
predicted
21 23 1                 
SMALL
USER_CHARGES
@<TRIPOS>ATOM
1	 O21	8.655	0.202	21.138	O.2	1	LIG1	0.000	
2	 N22	6.330	-0.842	17.672	N.2	1	LIG1	0.000	
3	 O23	11.982	-0.879	23.763	O.3	1	LIG1	0.000	
4	 C24	8.527	-0.894	21.644	C.2	1	LIG1	0.000	
5	 C25	7.059	-1.423	18.644	C.2	1	LIG1	0.000	
6	 C26	3.279	0.854	20.903	C.2	1	LIG1	0.000	
7	 C27	4.012	0.300	21.909	C.2	1	LIG1	0.000	
8	 C28	5.244	-0.191	17.951	C.2	1	LIG1	0.000	
9	 C29	3.671	0.705	19.595	C.2	1	LIG1	0.000	
10	 C30	5.150	-0.396	21.641	C.2	1	LIG1	0.000	
11	 C31	6.730	-1.297	19.960	C.2	1	LIG1	0.000	
12	 C32	4.809	-0.001	19.273	C.2	1	LIG1	0.000	
13	 C33	5.565	-0.576	20.321	C.2	1	LIG1	0.000	
14	 N34	9.126	-1.172	22.849	N.pl3	1	LIG1	0.000	
15	 C35	7.627	-1.915	20.999	C.3	1	LIG1	0.000	
16	 C36	11.155	0.063	23.249	C.3	1	LIG1	0.000	
17	 C37	9.709	-0.161	23.669	C.3	1	LIG1	0.000	
18	 C38	9.306	-2.487	23.402	C.3	1	LIG1	0.000	
19	 C39	13.234	-2.895	23.372	C.3	1	LIG1	0.000	
20	 C40	10.669	-3.043	23.191	C.3	1	LIG1	0.000	
21	 C41	11.895	-2.171	23.249	C.3	1	LIG1	0.000	
@<TRIPOS>BOND
1 2 8 ar
2 1 4 2
3 4 15 1
4 2 5 ar
5 6 7 ar
6 7 10 ar
7 8 12 ar
8 6 9 ar
9 10 13 ar
10 5 11 ar
11 11 13 ar
12 9 12 ar
13 12 13 ar
14 4 14 1
15 14 17 1
16 11 15 1
17 3 16 1
18 16 17 1
19 14 18 1
20 19 21 1
21 18 20 1
22 3 21 1
23 20 21 1
@<TRIPOS>SUBSTRUCTURE
1	LIG1	1	GROUP	1 C	LIG
