# created with PyMOL 3.1.3.1
@<TRIPOS>MOLECULE
predicted
31 35 1                 
SMALL
USER_CHARGES
@<TRIPOS>ATOM
1	 N20	7.804	3.047	22.814	N.2	1	LIG1	0.000	
2	 O21	11.072	2.169	24.405	O.2	1	LIG1	0.000	
3	 O22	9.021	0.405	21.509	O.2	1	LIG1	0.000	
4	 C24	7.494	2.515	23.960	C.2	1	LIG1	0.000	
5	 N25	6.619	-0.731	18.019	N.2	1	LIG1	0.000	
6	 C26	10.577	1.043	24.229	C.2	1	LIG1	0.000	
7	 C27	8.652	-0.656	21.975	C.2	1	LIG1	0.000	
8	 C28	7.311	-1.175	19.051	C.2	1	LIG1	0.000	
9	 C29	13.463	-1.008	23.127	C.2	1	LIG1	0.000	
10	 C30	12.734	0.023	23.620	C.2	1	LIG1	0.000	
11	 C31	11.442	-2.263	22.642	C.2	1	LIG1	0.000	
12	 C32	3.315	1.095	21.015	C.2	1	LIG1	0.000	
13	 C33	4.001	0.618	22.111	C.2	1	LIG1	0.000	
14	 C34	12.836	-2.152	22.630	C.2	1	LIG1	0.000	
15	 C35	11.352	-0.075	23.669	C.2	1	LIG1	0.000	
16	 C36	10.695	-1.241	23.241	C.2	1	LIG1	0.000	
17	 C37	5.462	-0.075	18.215	C.2	1	LIG1	0.000	
18	 C38	3.791	0.876	19.730	C.2	1	LIG1	0.000	
19	 C39	5.161	-0.070	21.928	C.2	1	LIG1	0.000	
20	 C40	6.883	-0.998	20.369	C.2	1	LIG1	0.000	
21	 C41	4.961	0.182	19.510	C.2	1	LIG1	0.000	
22	 C42	5.668	-0.292	20.631	C.2	1	LIG1	0.000	
23	 N43	7.669	-1.400	21.434	N.pl3	1	LIG1	0.000	
24	 N44	9.215	0.867	24.464	N.pl3	1	LIG1	0.000	
25	 C45	8.425	1.950	25.005	C.3	1	LIG1	0.000	
26	 C46	8.557	-3.450	24.378	C.3	1	LIG1	0.000	
27	 C47	7.527	-2.651	22.119	C.3	1	LIG1	0.000	
28	 C48	8.634	-0.474	24.436	C.3	1	LIG1	0.000	
29	 C49	8.614	-2.663	23.159	C.3	1	LIG1	0.000	
30	 C50	9.195	-1.286	23.244	C.3	1	LIG1	0.000	
31	 F23	13.586	-3.139	22.142	 F	1	LIG1	0.000	
@<TRIPOS>BOND
1 1 4 2
2 5 17 ar
3 2 6 2
4 6 15 1
5 3 7 2
6 7 30 1
7 5 8 ar
8 9 14 ar
9 9 10 ar
10 11 16 ar
11 12 13 ar
12 13 19 ar
13 11 14 ar
14 14 31 1
15 10 15 ar
16 15 16 ar
17 17 21 ar
18 12 18 ar
19 19 22 ar
20 8 20 ar
21 20 22 ar
22 18 21 ar
23 21 22 ar
24 7 23 1
25 20 23 1
26 6 24 1
27 24 25 1
28 4 25 1
29 26 29 1
30 23 27 1
31 24 28 1
32 27 29 1
33 29 30 1
34 16 30 1
35 28 30 1
@<TRIPOS>SUBSTRUCTURE
1	LIG1	1	GROUP	1 C	LIG
