# created with PyMOL 3.1.3.1
@<TRIPOS>MOLECULE
predicted
35 38 1                 
SMALL
USER_CHARGES
@<TRIPOS>ATOM
1	CL28	13.833	-1.978	21.523	Cl	1	LIG1	0.000	
2	 O23	11.022	2.148	25.928	O.2	1	LIG1	0.000	
3	 O24	8.393	-0.125	27.370	O.2	1	LIG1	0.000	
4	 O25	9.288	1.064	21.251	O.2	1	LIG1	0.000	
5	 O26	3.591	2.420	25.343	O.2	1	LIG1	0.000	
6	 O27	5.681	2.482	24.190	O.2	1	LIG1	0.000	
7	 N29	6.891	0.176	17.761	N.2	1	LIG1	0.000	
8	 C30	10.535	1.325	25.151	C.2	1	LIG1	0.000	
9	 C31	8.149	1.077	27.336	C.2	1	LIG1	0.000	
10	 C32	8.775	0.134	21.811	C.2	1	LIG1	0.000	
11	 C33	7.525	-0.258	18.864	C.2	1	LIG1	0.000	
12	 C34	13.492	-0.121	23.442	C.2	1	LIG1	0.000	
13	 C35	12.740	0.650	24.279	C.2	1	LIG1	0.000	
14	 C36	11.523	-1.076	22.462	C.2	1	LIG1	0.000	
15	 C37	3.531	2.096	20.538	C.2	1	LIG1	0.000	
16	 C38	12.876	-0.981	22.550	C.2	1	LIG1	0.000	
17	 C39	11.352	0.556	24.219	C.2	1	LIG1	0.000	
18	 C40	4.166	1.684	21.694	C.2	1	LIG1	0.000	
19	 C41	10.733	-0.296	23.293	C.2	1	LIG1	0.000	
20	 C42	5.747	0.835	17.860	C.2	1	LIG1	0.000	
21	 C43	4.037	1.824	19.263	C.2	1	LIG1	0.000	
22	 C44	5.333	0.987	21.578	C.2	1	LIG1	0.000	
23	 C45	7.054	-0.038	20.150	C.2	1	LIG1	0.000	
24	 C46	5.199	1.119	19.128	C.2	1	LIG1	0.000	
25	 C47	5.859	0.690	20.301	C.2	1	LIG1	0.000	
26	 N48	7.716	-0.527	21.318	N.pl3	1	LIG1	0.000	
27	 N49	7.744	1.736	28.358	N.pl3	1	LIG1	0.000	
28	 N50	9.170	1.134	25.128	N.pl3	1	LIG1	0.000	
29	 N51	3.575	1.946	22.892	N.pl3	1	LIG1	0.000	
30	 C52	7.570	1.044	29.637	C.3	1	LIG1	0.000	
31	 C53	8.361	1.883	26.093	C.3	1	LIG1	0.000	
32	 C54	8.484	0.232	24.217	C.3	1	LIG1	0.000	
33	 C55	4.549	0.161	24.701	C.3	1	LIG1	0.000	
34	 C56	9.273	-0.405	23.153	C.3	1	LIG1	0.000	
35	 S57	4.395	1.817	24.313	S.O2	1	LIG1	0.000	
@<TRIPOS>BOND
1 7 20 ar
2 2 8 2
3 3 9 2
4 9 31 1
5 4 10 2
6 10 26 1
7 7 11 ar
8 12 13 ar
9 13 17 ar
10 14 16 ar
11 15 18 ar
12 1 16 1
13 12 16 ar
14 8 17 1
15 18 22 ar
16 18 29 1
17 14 19 ar
18 17 19 ar
19 20 24 ar
20 15 21 ar
21 22 25 ar
22 11 23 ar
23 23 25 ar
24 21 24 ar
25 24 25 ar
26 23 26 1
27 9 27 1
28 8 28 1
29 28 32 1
30 29 35 1
31 27 30 1
32 28 31 1
33 32 34 1
34 10 34 1
35 19 34 1
36 5 35 2
37 6 35 2
38 33 35 1
@<TRIPOS>SUBSTRUCTURE
1	LIG1	1	GROUP	1 C	LIG
