# created with PyMOL 3.1.3.1
@<TRIPOS>MOLECULE
predicted
27 29 1                 
SMALL
USER_CHARGES
@<TRIPOS>ATOM
1	CL22	14.124	-1.642	22.172	Cl	1	LIG1	0.000	
2	 O19	9.069	0.579	21.041	O.2	1	LIG1	0.000	
3	 O20	8.512	4.592	24.945	O.2	1	LIG1	0.000	
4	 O21	9.281	3.878	22.794	O.2	1	LIG1	0.000	
5	 N23	6.633	0.408	17.674	N.2	1	LIG1	0.000	
6	 C24	8.493	-0.367	21.488	C.2	1	LIG1	0.000	
7	 C25	7.210	-0.213	18.695	C.2	1	LIG1	0.000	
8	 C26	12.930	0.182	23.684	C.2	1	LIG1	0.000	
9	 C27	11.503	-1.316	22.487	C.2	1	LIG1	0.000	
10	 C28	11.844	0.784	24.242	C.2	1	LIG1	0.000	
11	 C29	3.284	2.004	20.653	C.2	1	LIG1	0.000	
12	 C30	3.871	1.366	21.686	C.2	1	LIG1	0.000	
13	 C31	12.746	-0.859	22.806	C.2	1	LIG1	0.000	
14	 C32	10.410	-0.718	23.049	C.2	1	LIG1	0.000	
15	 C33	10.578	0.363	23.941	C.2	1	LIG1	0.000	
16	 C34	5.534	1.101	17.859	C.2	1	LIG1	0.000	
17	 C35	3.819	1.947	19.386	C.2	1	LIG1	0.000	
18	 C36	4.994	0.649	21.504	C.2	1	LIG1	0.000	
19	 C37	6.710	-0.183	19.952	C.2	1	LIG1	0.000	
20	 C38	4.957	1.212	19.145	C.2	1	LIG1	0.000	
21	 C39	5.556	0.563	20.215	C.2	1	LIG1	0.000	
22	 N40	7.348	-0.843	21.033	N.pl3	1	LIG1	0.000	
23	 N41	9.569	2.386	24.768	N.3	1	LIG1	0.000	
24	 C42	9.067	-1.171	22.669	C.3	1	LIG1	0.000	
25	 C43	9.399	0.998	24.613	C.3	1	LIG1	0.000	
26	 C44	7.097	2.839	23.692	C.3	1	LIG1	0.000	
27	 S45	8.654	3.500	24.034	S.O2	1	LIG1	0.000	
@<TRIPOS>BOND
1 5 16 ar
2 2 6 2
3 6 22 1
4 5 7 ar
5 8 13 ar
6 9 14 ar
7 8 10 ar
8 11 12 ar
9 12 18 ar
10 1 13 1
11 9 13 ar
12 14 24 1
13 10 15 ar
14 14 15 ar
15 16 20 ar
16 11 17 ar
17 18 21 ar
18 7 19 ar
19 19 21 ar
20 17 20 ar
21 20 21 ar
22 19 22 1
23 23 25 1
24 6 24 1
25 15 25 1
26 26 27 1
27 3 27 2
28 4 27 2
29 23 27 1
@<TRIPOS>SUBSTRUCTURE
1	LIG1	1	GROUP	1 C	LIG
