# created with PyMOL 3.1.3.1
@<TRIPOS>MOLECULE
predicted
25 28 1                 
SMALL
USER_CHARGES
@<TRIPOS>ATOM
1	CL17	-14.125	-1.922	-21.144	Cl	1	LIG1	0.000	
2	 O15	-9.398	0.170	-21.330	O.2	1	LIG1	0.000	
3	 N18	-7.086	0.146	-17.650	N.2	1	LIG1	0.000	
4	 O19	-9.992	-2.989	-25.114	O.3	1	LIG1	0.000	
5	 C20	-8.802	-0.820	-21.641	C.2	1	LIG1	0.000	
6	 C21	-7.654	-0.567	-18.660	C.2	1	LIG1	0.000	
7	 C22	-13.184	-2.868	-23.480	C.3	1	LIG1	0.000	
8	 C23	-12.213	-3.131	-24.407	C.3	1	LIG1	0.000	
9	 C24	-11.603	-1.867	-22.031	C.3	1	LIG1	0.000	
10	 C25	-3.861	1.842	-20.712	C.2	1	LIG1	0.000	
11	 C26	-4.414	1.148	-21.740	C.2	1	LIG1	0.000	
12	 C27	-12.888	-2.228	-22.309	C.3	1	LIG1	0.000	
13	 C28	-10.922	-2.768	-24.157	C.3	1	LIG1	0.000	
14	 C29	-10.592	-2.087	-22.955	C.3	1	LIG1	0.000	
15	 C30	-6.004	0.894	-17.864	C.2	1	LIG1	0.000	
16	 C31	-4.352	1.797	-19.427	C.2	1	LIG1	0.000	
17	 C32	-5.513	0.372	-21.520	C.2	1	LIG1	0.000	
18	 C33	-7.166	-0.498	-19.937	C.2	1	LIG1	0.000	
19	 C34	-5.456	1.011	-19.162	C.2	1	LIG1	0.000	
20	 C35	-6.040	0.283	-20.222	C.2	1	LIG1	0.000	
21	 N36	-7.791	-1.258	-20.992	N.pl3	1	LIG1	0.000	
22	 C37	-8.654	-2.757	-24.910	C.3	1	LIG1	0.000	
23	 C38	-8.345	-1.728	-23.931	C.3	1	LIG1	0.000	
24	 C39	-9.198	-1.780	-22.759	C.3	1	LIG1	0.000	
25	 F16	-3.906	1.207	-22.947	 F	1	LIG1	0.000	
@<TRIPOS>BOND
1 2 5 2
2 3 15 ar
3 4 13 1
4 5 21 1
5 5 24 1
6 3 6 ar
7 7 12 1
8 7 8 1
9 9 14 1
10 10 11 ar
11 11 17 ar
12 11 25 1
13 1 12 1
14 9 12 1
15 8 13 1
16 13 14 1
17 15 19 ar
18 10 16 ar
19 17 20 ar
20 6 18 ar
21 18 20 ar
22 16 19 ar
23 19 20 ar
24 18 21 1
25 4 22 1
26 22 23 1
27 14 24 1
28 23 24 1
@<TRIPOS>SUBSTRUCTURE
1	LIG1	1	GROUP	1 C	LIG
