# created with PyMOL 3.1.3.1
@<TRIPOS>MOLECULE
predicted
21 22 1                 
SMALL
USER_CHARGES
@<TRIPOS>ATOM
1	CL21	13.818	-1.863	21.697	Cl	1	LIG1	0.000	
2	 O20	9.094	1.215	20.978	O.2	1	LIG1	0.000	
3	 N22	6.606	0.362	17.742	N.2	1	LIG1	0.000	
4	 C23	8.558	0.397	21.653	C.2	1	LIG1	0.000	
5	 C24	5.404	0.888	17.825	C.2	1	LIG1	0.000	
6	 C25	7.272	-0.005	18.860	C.2	1	LIG1	0.000	
7	 C26	12.510	1.365	23.731	C.2	1	LIG1	0.000	
8	 C27	13.336	0.418	23.121	C.2	1	LIG1	0.000	
9	 C28	4.798	1.127	19.056	C.2	1	LIG1	0.000	
10	 C29	11.155	1.228	23.694	C.2	1	LIG1	0.000	
11	 C30	11.442	-0.829	22.378	C.2	1	LIG1	0.000	
12	 C31	12.790	-0.673	22.442	C.2	1	LIG1	0.000	
13	 C32	6.724	0.201	20.118	C.2	1	LIG1	0.000	
14	 C33	5.450	0.741	20.198	C.2	1	LIG1	0.000	
15	 C34	10.623	0.106	23.014	C.2	1	LIG1	0.000	
16	 N35	7.438	-0.192	21.321	N.pl3	1	LIG1	0.000	
17	 C36	4.815	0.987	21.547	C.3	1	LIG1	0.000	
18	 C37	9.311	-1.932	24.499	C.3	1	LIG1	0.000	
19	 C38	7.262	-0.719	24.211	C.3	1	LIG1	0.000	
20	 C39	9.180	0.019	22.991	C.3	1	LIG1	0.000	
21	 N40	8.554	-1.077	23.624	N.3	1	LIG1	0.000	
@<TRIPOS>BOND
1 3 6 ar
2 2 4 2
3 4 20 1
4 3 5 ar
5 6 13 ar
6 7 8 ar
7 8 12 ar
8 5 9 ar
9 7 10 ar
10 1 12 1
11 11 12 ar
12 13 16 1
13 9 14 ar
14 13 14 ar
15 10 15 ar
16 11 15 ar
17 4 16 1
18 14 17 1
19 15 20 1
20 20 21 1
21 18 21 1
22 19 21 1
@<TRIPOS>SUBSTRUCTURE
1	LIG1	1	GROUP	1 C	LIG
