# created with PyMOL 3.1.3.1
@<TRIPOS>MOLECULE
predicted
36 41 1                 
SMALL
USER_CHARGES
@<TRIPOS>ATOM
1	CL28	13.647	-3.228	21.921	Cl	1	LIG1	0.000	
2	 O26	10.899	2.240	24.588	O.2	1	LIG1	0.000	
3	 O27	8.904	0.493	21.577	O.2	1	LIG1	0.000	
4	 N29	6.554	-0.668	18.065	N.2	1	LIG1	0.000	
5	 O30	8.201	-4.566	24.578	O.3	1	LIG1	0.000	
6	 C31	10.395	1.114	24.393	C.2	1	LIG1	0.000	
7	 C32	8.515	-0.567	22.033	C.2	1	LIG1	0.000	
8	 C33	7.224	-1.106	19.113	C.2	1	LIG1	0.000	
9	 C34	13.317	-0.861	23.152	C.2	1	LIG1	0.000	
10	 C35	12.573	0.145	23.705	C.2	1	LIG1	0.000	
11	 C36	11.300	-2.118	22.674	C.2	1	LIG1	0.000	
12	 C37	3.158	1.213	20.958	C.2	1	LIG1	0.000	
13	 C38	3.809	0.735	22.071	C.2	1	LIG1	0.000	
14	 C39	12.685	-1.992	22.632	C.2	1	LIG1	0.000	
15	 C40	11.191	0.025	23.775	C.2	1	LIG1	0.000	
16	 C41	10.545	-1.150	23.309	C.2	1	LIG1	0.000	
17	 C42	5.395	0.005	18.218	C.2	1	LIG1	0.000	
18	 C43	3.675	0.975	19.680	C.2	1	LIG1	0.000	
19	 C44	4.976	0.043	21.924	C.2	1	LIG1	0.000	
20	 C45	6.746	-0.916	20.422	C.2	1	LIG1	0.000	
21	 C46	7.386	2.622	24.246	C.2	1	LIG1	0.000	
22	 C47	7.846	3.120	23.056	C.2	1	LIG1	0.000	
23	 C48	5.731	3.466	23.176	C.2	1	LIG1	0.000	
24	 C49	4.861	0.268	19.504	C.2	1	LIG1	0.000	
25	 C50	5.529	-0.195	20.653	C.2	1	LIG1	0.000	
26	 N51	7.502	-1.320	21.498	N.pl3	1	LIG1	0.000	
27	 N52	9.047	0.894	24.677	N.pl3	1	LIG1	0.000	
28	 N53	6.116	2.857	24.353	N.pl3	1	LIG1	0.000	
29	 N54	6.797	3.612	22.385	N.2	1	LIG1	0.000	
30	 C55	8.508	-5.168	25.830	C.3	1	LIG1	0.000	
31	 C56	8.260	1.933	25.310	C.3	1	LIG1	0.000	
32	 C57	8.594	-3.282	24.528	C.3	1	LIG1	0.000	
33	 C58	7.360	-2.563	22.236	C.3	1	LIG1	0.000	
34	 C59	8.449	-0.415	24.535	C.3	1	LIG1	0.000	
35	 C60	8.491	-2.603	23.219	C.3	1	LIG1	0.000	
36	 C61	9.030	-1.201	23.309	C.3	1	LIG1	0.000	
@<TRIPOS>BOND
1 4 17 ar
2 5 32 1
3 2 6 2
4 6 15 1
5 3 7 2
6 7 36 1
7 4 8 ar
8 9 14 ar
9 9 10 ar
10 11 16 ar
11 12 13 ar
12 13 19 ar
13 1 14 1
14 11 14 ar
15 10 15 ar
16 15 16 ar
17 17 24 ar
18 12 18 ar
19 19 25 ar
20 8 20 ar
21 20 25 ar
22 21 22 ar
23 21 28 ar
24 22 29 ar
25 23 28 ar
26 18 24 ar
27 24 25 ar
28 7 26 1
29 20 26 1
30 6 27 1
31 27 31 1
32 23 29 ar
33 5 30 1
34 21 31 1
35 32 35 1
36 26 33 1
37 27 34 1
38 33 35 1
39 35 36 1
40 16 36 1
41 34 36 1
@<TRIPOS>SUBSTRUCTURE
1	LIG1	1	GROUP	1 C	LIG
