# created with PyMOL 3.1.3.1
@<TRIPOS>MOLECULE
predicted
35 40 1                 
SMALL
USER_CHARGES
@<TRIPOS>ATOM
1	 O23	10.770	1.909	24.444	O.2	1	LIG1	0.000	
2	 O24	8.942	0.184	21.455	O.2	1	LIG1	0.000	
3	 N26	6.019	3.916	22.190	N.2	1	LIG1	0.000	
4	 N27	6.051	2.374	23.991	N.2	1	LIG1	0.000	
5	 N28	6.457	-0.767	17.966	N.2	1	LIG1	0.000	
6	 C29	10.280	0.789	24.261	C.2	1	LIG1	0.000	
7	 C30	8.492	-0.857	21.899	C.2	1	LIG1	0.000	
8	 C31	5.399	3.117	23.073	C.2	1	LIG1	0.000	
9	 C32	7.335	4.011	22.230	C.2	1	LIG1	0.000	
10	 C33	7.130	-1.231	18.999	C.2	1	LIG1	0.000	
11	 C34	7.386	2.444	24.041	C.2	1	LIG1	0.000	
12	 C35	8.072	3.261	23.170	C.2	1	LIG1	0.000	
13	 C36	13.251	-1.309	23.348	C.2	1	LIG1	0.000	
14	 C37	12.493	-0.240	23.766	C.2	1	LIG1	0.000	
15	 C38	11.250	-2.541	22.779	C.2	1	LIG1	0.000	
16	 C39	3.038	0.910	20.910	C.2	1	LIG1	0.000	
17	 C40	3.703	0.405	22.008	C.2	1	LIG1	0.000	
18	 C41	12.648	-2.451	22.851	C.2	1	LIG1	0.000	
19	 C42	11.101	-0.323	23.742	C.2	1	LIG1	0.000	
20	 C43	10.456	-1.498	23.288	C.2	1	LIG1	0.000	
21	 C44	5.294	-0.130	18.157	C.2	1	LIG1	0.000	
22	 C45	3.559	0.731	19.639	C.2	1	LIG1	0.000	
23	 C46	4.885	-0.251	21.846	C.2	1	LIG1	0.000	
24	 C47	6.681	-1.076	20.313	C.2	1	LIG1	0.000	
25	 C48	4.752	0.074	19.443	C.2	1	LIG1	0.000	
26	 C49	5.440	-0.418	20.559	C.2	1	LIG1	0.000	
27	 N50	7.438	-1.526	21.379	N.pl3	1	LIG1	0.000	
28	 N51	8.918	0.594	24.487	N.pl3	1	LIG1	0.000	
29	 C52	8.132	1.633	25.090	C.3	1	LIG1	0.000	
30	 C53	8.141	-3.699	24.262	C.3	1	LIG1	0.000	
31	 C54	7.218	-2.763	22.060	C.3	1	LIG1	0.000	
32	 C55	8.324	-0.730	24.365	C.3	1	LIG1	0.000	
33	 C56	8.368	-2.888	23.035	C.3	1	LIG1	0.000	
34	 C57	8.954	-1.516	23.187	C.3	1	LIG1	0.000	
35	 F25	13.424	-3.452	22.473	 F	1	LIG1	0.000	
@<TRIPOS>BOND
1 3 8 ar
2 5 21 ar
3 1 6 2
4 6 19 1
5 2 7 2
6 7 34 1
7 4 8 ar
8 3 9 ar
9 5 10 ar
10 4 11 ar
11 11 12 ar
12 9 12 ar
13 13 18 ar
14 13 14 ar
15 15 20 ar
16 16 17 ar
17 17 23 ar
18 15 18 ar
19 18 35 1
20 14 19 ar
21 19 20 ar
22 21 25 ar
23 16 22 ar
24 23 26 ar
25 10 24 ar
26 24 26 ar
27 22 25 ar
28 25 26 ar
29 7 27 1
30 24 27 1
31 6 28 1
32 28 29 1
33 11 29 1
34 30 33 1
35 27 31 1
36 28 32 1
37 31 33 1
38 33 34 1
39 20 34 1
40 32 34 1
@<TRIPOS>SUBSTRUCTURE
1	LIG1	1	GROUP	1 C	LIG
