# created with PyMOL 3.1.3.1
@<TRIPOS>MOLECULE
predicted
36 41 1                 
SMALL
USER_CHARGES
@<TRIPOS>ATOM
1	CL30	13.875	-1.845	21.852	Cl	1	LIG1	0.000	
2	 N26	8.022	5.599	26.155	N.1	1	LIG1	0.000	
3	 O27	9.168	1.162	21.568	O.2	1	LIG1	0.000	
4	 O28	9.404	0.319	28.065	O.2	1	LIG1	0.000	
5	 O29	7.357	0.176	26.887	O.2	1	LIG1	0.000	
6	 C31	7.551	4.710	26.667	C.1	1	LIG1	0.000	
7	 N32	6.814	0.149	18.018	N.2	1	LIG1	0.000	
8	 C33	8.737	0.119	22.087	C.2	1	LIG1	0.000	
9	 C34	7.407	-0.315	19.097	C.2	1	LIG1	0.000	
10	 C35	13.476	0.233	23.475	C.2	1	LIG1	0.000	
11	 C36	12.702	1.073	24.236	C.2	1	LIG1	0.000	
12	 C37	11.519	-0.947	22.706	C.2	1	LIG1	0.000	
13	 C38	3.560	2.346	20.767	C.2	1	LIG1	0.000	
14	 C39	4.171	1.891	21.908	C.2	1	LIG1	0.000	
15	 C40	12.886	-0.781	22.709	C.2	1	LIG1	0.000	
16	 C41	11.315	0.886	24.253	C.2	1	LIG1	0.000	
17	 C42	10.712	-0.103	23.467	C.2	1	LIG1	0.000	
18	 C43	5.720	0.885	18.129	C.2	1	LIG1	0.000	
19	 C44	4.064	2.026	19.516	C.2	1	LIG1	0.000	
20	 C45	5.276	1.112	21.810	C.2	1	LIG1	0.000	
21	 C46	6.991	-0.005	20.387	C.2	1	LIG1	0.000	
22	 C47	5.182	1.238	19.381	C.2	1	LIG1	0.000	
23	 C48	5.812	0.770	20.554	C.2	1	LIG1	0.000	
24	 N49	7.647	-0.525	21.540	N.pl3	1	LIG1	0.000	
25	 N50	9.344	0.916	25.639	N.3	1	LIG1	0.000	
26	 C51	10.474	1.753	25.200	C.3	1	LIG1	0.000	
27	 C52	7.195	-1.843	22.032	C.3	1	LIG1	0.000	
28	 C53	6.158	2.843	25.971	C.3	1	LIG1	0.000	
29	 C54	5.743	3.204	27.399	C.3	1	LIG1	0.000	
30	 C55	7.460	-2.066	23.507	C.3	1	LIG1	0.000	
31	 C56	7.119	3.337	26.881	C.3	1	LIG1	0.000	
32	 C57	8.546	0.729	24.392	C.3	1	LIG1	0.000	
33	 C58	8.861	-1.670	23.850	C.3	1	LIG1	0.000	
34	 C59	8.220	2.617	27.542	C.3	1	LIG1	0.000	
35	 C60	9.237	-0.247	23.451	C.3	1	LIG1	0.000	
36	 S61	8.558	0.924	27.063	S.O2	1	LIG1	0.000	
@<TRIPOS>BOND
1 2 6 3
2 6 31 1
3 7 18 ar
4 3 8 2
5 7 9 ar
6 10 15 ar
7 10 11 ar
8 12 17 ar
9 13 14 ar
10 14 20 ar
11 1 15 1
12 12 15 ar
13 11 16 ar
14 16 17 ar
15 17 35 1
16 18 22 ar
17 13 19 ar
18 20 23 ar
19 9 21 ar
20 21 23 ar
21 19 22 ar
22 22 23 ar
23 8 24 1
24 21 24 1
25 25 26 1
26 25 32 1
27 16 26 1
28 24 27 1
29 28 29 1
30 27 30 1
31 28 31 1
32 29 31 1
33 31 34 1
34 30 33 1
35 34 36 1
36 8 35 1
37 32 35 1
38 33 35 1
39 4 36 2
40 5 36 2
41 25 36 1
@<TRIPOS>SUBSTRUCTURE
1	LIG1	1	GROUP	1 C	LIG
