# created with PyMOL 3.1.3.1
@<TRIPOS>MOLECULE
predicted
34 39 1                 
SMALL
USER_CHARGES
@<TRIPOS>ATOM
1	 O22	10.748	1.896	24.267	O.2	1	LIG1	0.000	
2	 O23	8.939	0.104	21.354	O.2	1	LIG1	0.000	
3	 N25	7.943	3.444	23.206	N.2	1	LIG1	0.000	
4	 N26	6.470	-0.898	17.871	N.2	1	LIG1	0.000	
5	 O27	6.356	1.994	23.242	O.2	1	LIG1	0.000	
6	 C28	10.276	0.765	24.125	C.2	1	LIG1	0.000	
7	 C29	8.505	-0.927	21.824	C.2	1	LIG1	0.000	
8	 C30	7.463	2.355	23.771	C.2	1	LIG1	0.000	
9	 C31	7.039	3.812	22.220	C.2	1	LIG1	0.000	
10	 C32	7.151	-1.353	18.909	C.2	1	LIG1	0.000	
11	 C33	6.057	2.875	22.237	C.2	1	LIG1	0.000	
12	 C34	13.246	-1.300	23.247	C.2	1	LIG1	0.000	
13	 C35	12.481	-0.241	23.642	C.2	1	LIG1	0.000	
14	 C36	11.273	-2.572	22.716	C.2	1	LIG1	0.000	
15	 C37	3.052	0.801	20.799	C.2	1	LIG1	0.000	
16	 C38	3.719	0.302	21.899	C.2	1	LIG1	0.000	
17	 C39	12.662	-2.458	22.792	C.2	1	LIG1	0.000	
18	 C40	11.102	-0.346	23.631	C.2	1	LIG1	0.000	
19	 C41	10.472	-1.531	23.196	C.2	1	LIG1	0.000	
20	 C42	5.308	-0.262	18.044	C.2	1	LIG1	0.000	
21	 C43	3.575	0.614	19.523	C.2	1	LIG1	0.000	
22	 C44	4.901	-0.361	21.734	C.2	1	LIG1	0.000	
23	 C45	6.698	-1.189	20.216	C.2	1	LIG1	0.000	
24	 C46	4.775	-0.051	19.334	C.2	1	LIG1	0.000	
25	 C47	5.464	-0.533	20.455	C.2	1	LIG1	0.000	
26	 N48	7.458	-1.615	21.295	N.pl3	1	LIG1	0.000	
27	 N49	8.921	0.544	24.368	N.pl3	1	LIG1	0.000	
28	 C50	8.111	1.602	24.914	C.3	1	LIG1	0.000	
29	 C51	8.188	-3.758	24.179	C.3	1	LIG1	0.000	
30	 C52	7.249	-2.847	21.994	C.3	1	LIG1	0.000	
31	 C53	8.348	-0.798	24.300	C.3	1	LIG1	0.000	
32	 C54	8.393	-2.947	22.970	C.3	1	LIG1	0.000	
33	 C55	8.974	-1.574	23.108	C.3	1	LIG1	0.000	
34	 F24	13.447	-3.462	22.417	 F	1	LIG1	0.000	
@<TRIPOS>BOND
1 3 9 ar
2 4 20 ar
3 1 6 2
4 6 18 1
5 2 7 2
6 7 33 1
7 3 8 ar
8 5 8 ar
9 9 11 ar
10 4 10 ar
11 5 11 ar
12 12 17 ar
13 12 13 ar
14 14 19 ar
15 15 16 ar
16 16 22 ar
17 14 17 ar
18 17 34 1
19 13 18 ar
20 18 19 ar
21 20 24 ar
22 15 21 ar
23 22 25 ar
24 10 23 ar
25 23 25 ar
26 21 24 ar
27 24 25 ar
28 7 26 1
29 23 26 1
30 6 27 1
31 27 28 1
32 8 28 1
33 29 32 1
34 26 30 1
35 27 31 1
36 30 32 1
37 32 33 1
38 19 33 1
39 31 33 1
@<TRIPOS>SUBSTRUCTURE
1	LIG1	1	GROUP	1 C	LIG
