# created with PyMOL 3.1.3.1
@<TRIPOS>MOLECULE
predicted
27 30 1                 
SMALL
USER_CHARGES
@<TRIPOS>ATOM
1	 O21	8.332	0.326	21.288	O.2	1	LIG1	0.000	
2	 N22	6.303	-0.796	17.573	N.2	1	LIG1	0.000	
3	 C23	8.292	-0.831	21.671	C.2	1	LIG1	0.000	
4	 C24	6.649	-0.612	24.790	C.3	1	LIG1	0.000	
5	 C25	6.453	-2.098	25.211	C.3	1	LIG1	0.000	
6	 C26	7.692	0.336	24.403	C.3	1	LIG1	0.000	
7	 C27	7.032	-3.163	24.354	C.3	1	LIG1	0.000	
8	 C28	9.061	-0.159	23.845	C.3	1	LIG1	0.000	
9	 C29	8.493	-3.141	24.391	C.3	1	LIG1	0.000	
10	 C30	7.011	-1.378	18.551	C.2	1	LIG1	0.000	
11	 C31	13.484	-2.572	23.575	C.2	1	LIG1	0.000	
12	 C32	12.862	-2.408	22.339	C.2	1	LIG1	0.000	
13	 C33	12.737	-2.720	24.689	C.2	1	LIG1	0.000	
14	 C34	11.478	-2.374	22.268	C.2	1	LIG1	0.000	
15	 C35	11.331	-2.701	24.596	C.2	1	LIG1	0.000	
16	 C36	3.138	0.850	20.728	C.2	1	LIG1	0.000	
17	 C37	3.849	0.299	21.744	C.2	1	LIG1	0.000	
18	 C38	10.728	-2.572	23.380	C.2	1	LIG1	0.000	
19	 C39	5.202	-0.160	17.829	C.2	1	LIG1	0.000	
20	 C40	3.573	0.712	19.429	C.2	1	LIG1	0.000	
21	 C41	4.994	-0.386	21.502	C.2	1	LIG1	0.000	
22	 C42	6.650	-1.263	19.880	C.2	1	LIG1	0.000	
23	 C43	4.732	0.011	19.137	C.2	1	LIG1	0.000	
24	 C44	5.467	-0.567	20.200	C.2	1	LIG1	0.000	
25	 N45	8.844	-1.157	22.883	N.pl3	1	LIG1	0.000	
26	 C46	7.530	-1.873	20.908	C.3	1	LIG1	0.000	
27	 C47	9.218	-2.548	23.227	C.3	1	LIG1	0.000	
@<TRIPOS>BOND
1 1 3 2
2 2 19 ar
3 3 25 1
4 3 26 1
5 4 5 1
6 5 7 1
7 4 6 1
8 7 9 1
9 6 8 1
10 9 27 1
11 2 10 ar
12 11 13 ar
13 11 12 ar
14 13 15 ar
15 12 14 ar
16 16 17 ar
17 17 21 ar
18 14 18 ar
19 15 18 ar
20 19 23 ar
21 16 20 ar
22 21 24 ar
23 10 22 ar
24 22 24 ar
25 20 23 ar
26 23 24 ar
27 8 25 1
28 25 27 1
29 22 26 1
30 18 27 1
@<TRIPOS>SUBSTRUCTURE
1	LIG1	1	GROUP	1 C	LIG
