# created with PyMOL 3.1.3.1
@<TRIPOS>MOLECULE
predicted
38 43 1                 
SMALL
USER_CHARGES
@<TRIPOS>ATOM
1	CL35	13.705	-3.350	22.577	Cl	1	LIG1	0.000	
2	 O32	10.671	2.299	24.265	O.2	1	LIG1	0.000	
3	 O33	8.926	0.404	21.388	O.2	1	LIG1	0.000	
4	 N36	6.523	-0.908	17.899	N.2	1	LIG1	0.000	
5	 O37	7.259	-3.382	24.931	O.3	1	LIG1	0.000	
6	 C38	10.224	1.157	24.148	C.2	1	LIG1	0.000	
7	 C39	8.542	-0.645	21.875	C.2	1	LIG1	0.000	
8	 C40	7.215	-1.311	18.958	C.2	1	LIG1	0.000	
9	 C41	13.222	-0.887	23.421	C.2	1	LIG1	0.000	
10	 C42	12.431	0.171	23.762	C.2	1	LIG1	0.000	
11	 C43	11.288	-2.193	22.893	C.2	1	LIG1	0.000	
12	 C44	3.253	1.063	20.768	C.2	1	LIG1	0.000	
13	 C45	3.940	0.648	21.890	C.2	1	LIG1	0.000	
14	 C46	12.659	-2.065	22.980	C.2	1	LIG1	0.000	
15	 C47	11.077	0.048	23.734	C.2	1	LIG1	0.000	
16	 C48	10.483	-1.151	23.318	C.2	1	LIG1	0.000	
17	 C49	5.385	-0.251	18.072	C.2	1	LIG1	0.000	
18	 C50	3.733	0.765	19.509	C.2	1	LIG1	0.000	
19	 C51	5.090	-0.048	21.751	C.2	1	LIG1	0.000	
20	 C52	6.804	-1.063	20.265	C.2	1	LIG1	0.000	
21	 C53	4.890	0.060	19.346	C.2	1	LIG1	0.000	
22	 C54	5.593	-0.353	20.480	C.2	1	LIG1	0.000	
23	 N55	7.573	-1.429	21.343	N.pl3	1	LIG1	0.000	
24	 N56	8.874	0.941	24.319	N.pl3	1	LIG1	0.000	
25	 C57	7.126	-4.309	25.963	C.3	1	LIG1	0.000	
26	 C58	8.010	1.998	24.684	C.3	1	LIG1	0.000	
27	 C59	5.156	-2.966	26.757	C.3	1	LIG1	0.000	
28	 C60	6.336	-2.560	27.565	C.3	1	LIG1	0.000	
29	 C61	6.194	-3.862	27.008	C.3	1	LIG1	0.000	
30	 C62	8.432	-3.392	24.312	C.3	1	LIG1	0.000	
31	 C63	7.443	-2.644	22.056	C.3	1	LIG1	0.000	
32	 C64	8.340	-0.370	24.291	C.3	1	LIG1	0.000	
33	 C65	6.384	4.329	22.269	C.3	1	LIG1	0.000	
34	 C66	7.696	2.726	23.374	C.2	1	LIG1	0.000	
35	 C67	8.471	-2.616	23.102	C.3	1	LIG1	0.000	
36	 C68	9.002	-1.201	23.193	C.3	1	LIG1	0.000	
37	 N69	6.653	3.590	23.441	N.2	1	LIG1	0.000	
38	 F34	5.947	-4.854	27.818	 F	1	LIG1	0.000	
@<TRIPOS>BOND
1 4 17 ar
2 5 25 1
3 2 6 2
4 3 7 2
5 7 23 1
6 4 8 ar
7 9 10 ar
8 10 15 ar
9 11 14 ar
10 12 13 ar
11 13 19 ar
12 1 14 1
13 9 14 ar
14 6 15 1
15 11 16 ar
16 15 16 ar
17 17 21 ar
18 12 18 ar
19 19 22 ar
20 8 20 ar
21 20 22 ar
22 18 21 ar
23 21 22 ar
24 20 23 1
25 23 31 1
26 6 24 1
27 24 32 1
28 25 29 1
29 24 26 1
30 27 28 1
31 27 29 1
32 28 29 1
33 29 38 1
34 5 30 1
35 31 35 1
36 32 36 1
37 33 37 1
38 26 34 1
39 30 35 1
40 7 36 1
41 16 36 1
42 35 36 1
43 34 37 2
@<TRIPOS>SUBSTRUCTURE
1	LIG1	1	GROUP	1 C	LIG
