# created with PyMOL 3.1.3.1
@<TRIPOS>MOLECULE
predicted
34 39 1                 
SMALL
USER_CHARGES
@<TRIPOS>ATOM
1	CL25	-13.287	-2.317	-22.786	Cl	1	LIG1	0.000	
2	 O21	-9.589	3.337	-23.406	O.2	1	LIG1	0.000	
3	 O22	-6.717	1.034	-25.751	O.2	1	LIG1	0.000	
4	 O23	-8.284	1.140	-20.821	O.2	1	LIG1	0.000	
5	 N26	-6.041	-0.197	-17.112	N.2	1	LIG1	0.000	
6	 C27	-9.472	2.142	-23.334	C.2	1	LIG1	0.000	
7	 C28	-6.279	1.567	-24.788	C.2	1	LIG1	0.000	
8	 C29	-7.961	0.051	-21.209	C.2	1	LIG1	0.000	
9	 C30	-12.661	0.255	-22.834	C.3	1	LIG1	0.000	
10	 C31	-11.788	1.363	-22.892	C.3	1	LIG1	0.000	
11	 C32	-12.154	-1.021	-22.810	C.3	1	LIG1	0.000	
12	 C33	-10.455	1.134	-22.976	C.3	1	LIG1	0.000	
13	 C34	-7.486	-2.533	-23.631	C.3	1	LIG1	0.000	
14	 C35	-7.980	-1.931	-22.364	C.3	1	LIG1	0.000	
15	 C36	-6.726	-0.579	-18.190	C.2	1	LIG1	0.000	
16	 C37	-2.577	1.577	-19.949	C.2	1	LIG1	0.000	
17	 C38	-3.271	1.181	-21.073	C.2	1	LIG1	0.000	
18	 C39	-4.858	0.396	-17.265	C.2	1	LIG1	0.000	
19	 C40	-3.095	1.320	-18.688	C.2	1	LIG1	0.000	
20	 C41	-4.478	0.548	-20.959	C.2	1	LIG1	0.000	
21	 C42	-6.283	-0.360	-19.479	C.2	1	LIG1	0.000	
22	 C43	-4.311	0.676	-18.533	C.2	1	LIG1	0.000	
23	 C44	-5.020	0.289	-19.687	C.2	1	LIG1	0.000	
24	 N45	-4.992	1.612	-24.494	N.pl3	1	LIG1	0.000	
25	 N46	-7.028	-0.745	-20.606	N.pl3	1	LIG1	0.000	
26	 N47	-8.379	1.508	-23.609	N.pl3	1	LIG1	0.000	
27	 C48	-4.037	0.937	-25.266	C.3	1	LIG1	0.000	
28	 C49	-7.139	2.155	-23.780	C.3	1	LIG1	0.000	
29	 C50	-6.932	-1.950	-21.266	C.3	1	LIG1	0.000	
30	 C51	-10.773	-1.256	-22.898	C.3	1	LIG1	0.000	
31	 C52	-8.488	-0.553	-22.437	C.3	1	LIG1	0.000	
32	 C53	-8.660	0.054	-23.585	C.3	1	LIG1	0.000	
33	 C54	-9.795	-0.194	-22.968	C.3	1	LIG1	0.000	
34	 F24	-7.415	-3.841	-23.641	 F	1	LIG1	0.000	
@<TRIPOS>BOND
1 5 18 ar
2 2 6 2
3 6 12 1
4 3 7 2
5 7 28 1
6 4 8 2
7 8 25 1
8 9 11 1
9 9 10 1
10 1 11 1
11 11 30 1
12 10 12 1
13 12 33 1
14 13 34 1
15 13 14 1
16 5 15 ar
17 16 17 ar
18 17 20 ar
19 18 22 ar
20 16 19 ar
21 20 23 ar
22 15 21 ar
23 21 23 ar
24 19 22 ar
25 22 23 ar
26 7 24 1
27 21 25 1
28 25 29 1
29 6 26 1
30 26 32 1
31 24 27 1
32 26 28 1
33 14 29 1
34 30 33 1
35 8 31 1
36 14 31 1
37 31 32 1
38 31 33 1
39 32 33 1
@<TRIPOS>SUBSTRUCTURE
1	LIG1	1	GROUP	1 C	LIG
