# created with PyMOL 3.1.3.1
@<TRIPOS>MOLECULE
predicted
25 26 1                 
SMALL
USER_CHARGES
@<TRIPOS>ATOM
1	 N25	7.776	-6.777	28.169	N.3	1	LIG1	0.000	
2	 O26	9.210	1.127	20.864	O.2	1	LIG1	0.000	
3	 C27	8.806	-6.099	27.551	C.3	1	LIG1	0.000	
4	 N28	6.515	0.261	17.588	N.2	1	LIG1	0.000	
5	 C29	8.494	0.498	21.622	C.2	1	LIG1	0.000	
6	 C30	5.388	0.923	17.709	C.2	1	LIG1	0.000	
7	 C31	7.180	-0.163	18.669	C.2	1	LIG1	0.000	
8	 C32	4.827	1.205	18.935	C.2	1	LIG1	0.000	
9	 C33	9.006	-2.621	22.657	C.2	1	LIG1	0.000	
10	 C34	6.890	-2.588	23.722	C.2	1	LIG1	0.000	
11	 C35	9.506	-3.322	23.694	C.2	1	LIG1	0.000	
12	 C36	7.398	-3.268	24.755	C.2	1	LIG1	0.000	
13	 C37	5.518	0.764	20.057	C.2	1	LIG1	0.000	
14	 C38	7.690	-2.226	22.666	C.2	1	LIG1	0.000	
15	 C39	8.711	-3.676	24.754	C.2	1	LIG1	0.000	
16	 C40	6.691	0.061	19.929	C.2	1	LIG1	0.000	
17	 N41	8.587	0.635	22.907	N.pl3	1	LIG1	0.000	
18	 N42	7.075	-1.559	21.600	N.2	1	LIG1	0.000	
19	 C43	9.469	1.095	25.116	C.3	1	LIG1	0.000	
20	 C44	11.037	0.775	23.237	C.3	1	LIG1	0.000	
21	 C45	9.560	2.840	23.353	C.3	1	LIG1	0.000	
22	 C46	8.401	-4.828	26.908	C.3	1	LIG1	0.000	
23	 C47	9.300	-4.444	25.872	C.3	1	LIG1	0.000	
24	 C48	9.675	1.342	23.617	C.3	1	LIG1	0.000	
25	 C49	7.444	-0.396	21.101	C.2	1	LIG1	0.000	
@<TRIPOS>BOND
1 1 3 1
2 4 7 ar
3 2 5 2
4 5 25 1
5 4 6 ar
6 6 8 ar
7 9 11 ar
8 11 15 ar
9 10 12 ar
10 8 13 ar
11 9 14 ar
12 10 14 ar
13 12 15 ar
14 15 23 1
15 7 16 ar
16 13 16 ar
17 5 17 1
18 14 18 1
19 19 24 1
20 3 22 1
21 22 23 1
22 17 24 1
23 20 24 1
24 21 24 1
25 16 25 1
26 18 25 2
@<TRIPOS>SUBSTRUCTURE
1	LIG1	1	GROUP	1 C	LIG
