# created with PyMOL 3.1.3.1
@<TRIPOS>MOLECULE
predicted
33 37 1                 
SMALL
USER_CHARGES
@<TRIPOS>ATOM
1	CL27	13.755	-2.032	21.634	Cl	1	LIG1	0.000	
2	 O26	9.159	0.868	20.871	O.2	1	LIG1	0.000	
3	 N28	6.673	0.357	17.776	N.2	1	LIG1	0.000	
4	 N29	7.935	-3.648	26.029	N.2	1	LIG1	0.000	
5	 O30	10.609	1.969	24.505	O.3	1	LIG1	0.000	
6	 C31	8.599	0.198	21.687	C.2	1	LIG1	0.000	
7	 C32	7.273	-0.038	18.893	C.2	1	LIG1	0.000	
8	 C33	8.145	-4.145	24.801	C.2	1	LIG1	0.000	
9	 C34	13.425	0.145	23.200	C.2	1	LIG1	0.000	
10	 C35	12.671	1.103	23.832	C.2	1	LIG1	0.000	
11	 C36	11.432	-0.962	22.412	C.2	1	LIG1	0.000	
12	 C37	3.089	2.020	20.437	C.2	1	LIG1	0.000	
13	 C38	3.694	1.600	21.588	C.2	1	LIG1	0.000	
14	 C39	8.984	-5.226	24.912	C.2	1	LIG1	0.000	
15	 C40	12.803	-0.884	22.480	C.2	1	LIG1	0.000	
16	 C41	11.302	1.029	23.765	C.2	1	LIG1	0.000	
17	 C42	10.631	-0.010	23.064	C.2	1	LIG1	0.000	
18	 C43	5.513	0.951	17.850	C.2	1	LIG1	0.000	
19	 C44	3.686	1.825	19.196	C.2	1	LIG1	0.000	
20	 C45	4.898	0.974	21.550	C.2	1	LIG1	0.000	
21	 C46	6.746	0.160	20.162	C.2	1	LIG1	0.000	
22	 C47	9.267	-5.376	26.267	C.2	1	LIG1	0.000	
23	 C48	4.880	1.190	19.102	C.2	1	LIG1	0.000	
24	 C49	5.513	0.778	20.287	C.2	1	LIG1	0.000	
25	 N50	7.406	-0.249	21.345	N.pl3	1	LIG1	0.000	
26	 N51	8.599	-4.414	26.897	N.2	1	LIG1	0.000	
27	 C52	8.596	-4.223	28.309	C.3	1	LIG1	0.000	
28	 C53	9.269	2.234	24.019	C.3	1	LIG1	0.000	
29	 C54	8.489	0.940	24.013	C.3	1	LIG1	0.000	
30	 C55	7.576	-3.602	23.496	C.3	1	LIG1	0.000	
31	 C56	8.841	-1.514	23.663	C.3	1	LIG1	0.000	
32	 C57	9.147	-0.089	23.082	C.3	1	LIG1	0.000	
33	 N58	7.718	-2.175	23.265	N.3	1	LIG1	0.000	
@<TRIPOS>BOND
1 3 18 ar
2 5 16 1
3 2 6 2
4 6 25 1
5 3 7 ar
6 4 8 ar
7 8 30 1
8 9 15 ar
9 9 10 ar
10 11 17 ar
11 12 13 ar
12 13 20 ar
13 8 14 ar
14 1 15 1
15 11 15 ar
16 10 16 ar
17 16 17 ar
18 18 23 ar
19 12 19 ar
20 20 24 ar
21 7 21 ar
22 21 24 ar
23 14 22 ar
24 19 23 ar
25 23 24 ar
26 21 25 1
27 4 26 ar
28 22 26 ar
29 26 27 1
30 5 28 1
31 28 29 1
32 30 33 1
33 31 32 1
34 6 32 1
35 17 32 1
36 29 32 1
37 31 33 1
@<TRIPOS>SUBSTRUCTURE
1	LIG1	1	GROUP	1 C	LIG
