# created with PyMOL 3.1.3.1
@<TRIPOS>MOLECULE
predicted
26 30 1                 
SMALL
USER_CHARGES
@<TRIPOS>ATOM
1	CL19	13.966	-2.025	21.416	Cl	1	LIG1	0.000	
2	 O18	9.310	1.397	21.656	O.2	1	LIG1	0.000	
3	 N20	6.889	0.203	18.061	N.2	1	LIG1	0.000	
4	 O21	11.025	1.262	25.210	O.3	1	LIG1	0.000	
5	 C22	8.900	0.324	22.088	C.2	1	LIG1	0.000	
6	 C23	7.562	-0.225	19.103	C.2	1	LIG1	0.000	
7	 C24	13.729	-0.186	23.349	C.2	1	LIG1	0.000	
8	 C25	13.036	0.570	24.240	C.2	1	LIG1	0.000	
9	 C26	11.665	-1.117	22.433	C.2	1	LIG1	0.000	
10	 C27	3.511	1.998	20.950	C.2	1	LIG1	0.000	
11	 C28	4.209	1.595	22.065	C.2	1	LIG1	0.000	
12	 C29	13.057	-1.054	22.455	C.2	1	LIG1	0.000	
13	 C30	11.663	0.524	24.230	C.2	1	LIG1	0.000	
14	 C31	10.947	-0.339	23.350	C.2	1	LIG1	0.000	
15	 C32	5.705	0.825	18.214	C.2	1	LIG1	0.000	
16	 C33	3.983	1.753	19.677	C.2	1	LIG1	0.000	
17	 C34	5.397	0.953	21.922	C.2	1	LIG1	0.000	
18	 C35	7.156	0.050	20.433	C.2	1	LIG1	0.000	
19	 C36	5.189	1.106	19.502	C.2	1	LIG1	0.000	
20	 C37	5.899	0.689	20.634	C.2	1	LIG1	0.000	
21	 N38	7.898	-0.394	21.543	N.pl3	1	LIG1	0.000	
22	 C39	9.650	1.607	24.948	C.3	1	LIG1	0.000	
23	 C40	7.747	-1.696	22.230	C.3	1	LIG1	0.000	
24	 C41	8.864	0.356	24.612	C.3	1	LIG1	0.000	
25	 C42	8.872	-1.747	23.323	C.3	1	LIG1	0.000	
26	 C43	9.455	-0.342	23.360	C.3	1	LIG1	0.000	
@<TRIPOS>BOND
1 2 5 2
2 3 15 ar
3 4 13 1
4 5 21 1
5 5 26 1
6 3 6 ar
7 7 12 ar
8 7 8 ar
9 9 14 ar
10 10 11 ar
11 11 17 ar
12 1 12 1
13 9 12 ar
14 8 13 ar
15 13 14 ar
16 15 19 ar
17 10 16 ar
18 17 20 ar
19 6 18 ar
20 18 20 ar
21 16 19 ar
22 19 20 ar
23 18 21 1
24 21 23 1
25 4 22 1
26 23 25 1
27 22 24 1
28 25 26 1
29 14 26 1
30 24 26 1
@<TRIPOS>SUBSTRUCTURE
1	LIG1	1	GROUP	1 C	LIG
