# created with PyMOL 3.1.3.1
@<TRIPOS>MOLECULE
predicted
33 37 1                 
SMALL
USER_CHARGES
@<TRIPOS>ATOM
1	CL27	13.584	-3.264	21.839	Cl	1	LIG1	0.000	
2	 O24	10.937	2.206	24.566	O.2	1	LIG1	0.000	
3	 O25	6.163	2.209	24.406	O.2	1	LIG1	0.000	
4	 O26	8.903	0.517	21.578	O.2	1	LIG1	0.000	
5	 N28	6.515	-0.700	18.013	N.2	1	LIG1	0.000	
6	 C29	10.434	1.075	24.373	C.2	1	LIG1	0.000	
7	 C30	7.299	2.483	24.283	C.2	1	LIG1	0.000	
8	 C31	8.504	-0.547	22.020	C.2	1	LIG1	0.000	
9	 C32	7.191	-1.122	19.059	C.2	1	LIG1	0.000	
10	 C33	13.306	-0.904	23.129	C.2	1	LIG1	0.000	
11	 C34	12.582	0.095	23.689	C.2	1	LIG1	0.000	
12	 C35	11.263	-2.129	22.596	C.2	1	LIG1	0.000	
13	 C36	3.099	1.099	20.909	C.2	1	LIG1	0.000	
14	 C37	3.775	0.652	22.026	C.2	1	LIG1	0.000	
15	 C38	12.647	-2.017	22.562	C.2	1	LIG1	0.000	
16	 C39	11.205	0.002	23.748	C.2	1	LIG1	0.000	
17	 C40	10.543	-1.151	23.264	C.2	1	LIG1	0.000	
18	 C41	5.337	-0.065	18.172	C.2	1	LIG1	0.000	
19	 C42	3.610	0.864	19.637	C.2	1	LIG1	0.000	
20	 C43	4.959	-0.000	21.879	C.2	1	LIG1	0.000	
21	 C44	6.751	-0.905	20.378	C.2	1	LIG1	0.000	
22	 C45	4.811	0.196	19.462	C.2	1	LIG1	0.000	
23	 C46	5.507	-0.238	20.600	C.2	1	LIG1	0.000	
24	 N47	7.729	3.194	23.231	N.pl3	1	LIG1	0.000	
25	 N48	7.512	-1.298	21.461	N.pl3	1	LIG1	0.000	
26	 N49	9.087	0.887	24.629	N.pl3	1	LIG1	0.000	
27	 C50	6.813	3.740	22.286	C.3	1	LIG1	0.000	
28	 C51	8.321	1.949	25.248	C.3	1	LIG1	0.000	
29	 C52	8.421	-3.424	24.354	C.3	1	LIG1	0.000	
30	 C53	7.360	-2.552	22.144	C.3	1	LIG1	0.000	
31	 C54	8.488	-0.449	24.534	C.3	1	LIG1	0.000	
32	 C55	8.469	-2.591	23.144	C.3	1	LIG1	0.000	
33	 C56	9.046	-1.207	23.278	C.3	1	LIG1	0.000	
@<TRIPOS>BOND
1 5 18 ar
2 2 6 2
3 3 7 2
4 7 28 1
5 4 8 2
6 8 25 1
7 5 9 ar
8 10 11 ar
9 11 16 ar
10 12 15 ar
11 13 14 ar
12 14 20 ar
13 1 15 1
14 10 15 ar
15 6 16 1
16 12 17 ar
17 16 17 ar
18 18 22 ar
19 13 19 ar
20 20 23 ar
21 9 21 ar
22 21 23 ar
23 19 22 ar
24 22 23 ar
25 7 24 1
26 21 25 1
27 25 30 1
28 6 26 1
29 26 31 1
30 24 27 1
31 26 28 1
32 30 32 1
33 31 33 1
34 29 32 1
35 8 33 1
36 17 33 1
37 32 33 1
@<TRIPOS>SUBSTRUCTURE
1	LIG1	1	GROUP	1 C	LIG
