# created with PyMOL 3.1.3.1
@<TRIPOS>MOLECULE
predicted
30 33 1                 
SMALL
USER_CHARGES
@<TRIPOS>ATOM
1	 O21	6.911	-3.795	27.414	O.2	1	LIG1	0.000	
2	 O22	9.003	0.994	20.803	O.2	1	LIG1	0.000	
3	 N23	6.496	0.397	17.708	N.2	1	LIG1	0.000	
4	 N24	7.301	-0.342	18.407	N.2	1	LIG1	0.000	
5	 S25	13.542	-1.666	22.002	S.2	1	LIG1	0.000	
6	 C26	7.448	-4.764	26.929	C.2	1	LIG1	0.000	
7	 C27	8.671	-0.040	21.382	C.2	1	LIG1	0.000	
8	 C28	13.751	-0.887	23.524	C.2	1	LIG1	0.000	
9	 C29	11.953	-0.978	21.840	C.2	1	LIG1	0.000	
10	 C30	7.728	-2.384	25.195	C.2	1	LIG1	0.000	
11	 C31	9.245	-3.761	23.952	C.2	1	LIG1	0.000	
12	 C32	8.040	-1.319	24.401	C.2	1	LIG1	0.000	
13	 C33	9.537	-2.687	23.175	C.2	1	LIG1	0.000	
14	 C34	12.659	-0.123	23.860	C.2	1	LIG1	0.000	
15	 C35	3.800	2.258	19.403	C.2	1	LIG1	0.000	
16	 C36	4.115	1.867	20.690	C.2	1	LIG1	0.000	
17	 C37	8.349	-3.625	24.996	C.2	1	LIG1	0.000	
18	 C38	8.937	-1.469	23.390	C.2	1	LIG1	0.000	
19	 C39	11.660	-0.184	22.937	C.2	1	LIG1	0.000	
20	 C40	4.532	1.813	18.315	C.2	1	LIG1	0.000	
21	 C41	5.181	1.015	20.926	C.2	1	LIG1	0.000	
22	 C42	5.582	0.953	18.506	C.2	1	LIG1	0.000	
23	 C43	5.896	0.545	19.836	C.2	1	LIG1	0.000	
24	 N44	8.111	-4.761	25.771	N.pl3	1	LIG1	0.000	
25	 N45	7.417	-6.017	27.556	N.pl3	1	LIG1	0.000	
26	 N46	9.249	-0.353	22.573	N.pl3	1	LIG1	0.000	
27	 N47	6.959	-0.264	19.680	N.2	1	LIG1	0.000	
28	 C48	6.748	-6.187	28.785	C.3	1	LIG1	0.000	
29	 C49	10.344	0.487	23.082	C.3	1	LIG1	0.000	
30	 C50	7.677	-0.957	20.785	C.3	1	LIG1	0.000	
@<TRIPOS>BOND
1 3 22 ar
2 3 4 ar
3 5 9 ar
4 1 6 2
5 6 24 1
6 2 7 2
7 7 30 1
8 5 8 ar
9 10 12 ar
10 12 18 ar
11 11 13 ar
12 8 14 ar
13 15 16 ar
14 16 21 ar
15 10 17 ar
16 11 17 ar
17 13 18 ar
18 18 26 1
19 9 19 ar
20 14 19 ar
21 15 20 ar
22 21 23 ar
23 20 22 ar
24 22 23 ar
25 17 24 1
26 6 25 1
27 7 26 1
28 26 29 1
29 4 27 ar
30 23 27 ar
31 25 28 1
32 19 29 1
33 27 30 1
@<TRIPOS>SUBSTRUCTURE
1	LIG1	1	GROUP	1 C	LIG
