# created with PyMOL 3.1.3.1
@<TRIPOS>MOLECULE
predicted
23 25 1                 
SMALL
USER_CHARGES
@<TRIPOS>ATOM
1	CL15	13.996	-1.000	22.429	Cl	1	LIG1	0.000	
2	 N13	12.800	5.053	23.328	N.1	1	LIG1	0.000	
3	 O14	8.940	1.797	21.048	O.2	1	LIG1	0.000	
4	 C16	12.601	3.877	23.314	C.1	1	LIG1	0.000	
5	 N17	6.619	0.815	17.736	N.2	1	LIG1	0.000	
6	 C18	8.536	0.886	21.669	C.2	1	LIG1	0.000	
7	 C19	7.288	0.398	18.828	C.2	1	LIG1	0.000	
8	 C20	13.241	1.558	22.957	C.2	1	LIG1	0.000	
9	 C21	11.545	-0.142	22.734	C.2	1	LIG1	0.000	
10	 C22	10.955	2.163	23.209	C.2	1	LIG1	0.000	
11	 C23	3.104	2.347	20.556	C.2	1	LIG1	0.000	
12	 C24	3.761	1.911	21.659	C.2	1	LIG1	0.000	
13	 C25	12.846	0.240	22.726	C.2	1	LIG1	0.000	
14	 C26	12.281	2.523	23.160	C.2	1	LIG1	0.000	
15	 C27	10.612	0.827	23.004	C.2	1	LIG1	0.000	
16	 C28	5.444	1.381	17.858	C.2	1	LIG1	0.000	
17	 C29	3.654	2.202	19.304	C.2	1	LIG1	0.000	
18	 C30	4.954	1.325	21.549	C.2	1	LIG1	0.000	
19	 C31	6.772	0.544	20.079	C.2	1	LIG1	0.000	
20	 C32	4.852	1.593	19.125	C.2	1	LIG1	0.000	
21	 C33	5.528	1.147	20.271	C.2	1	LIG1	0.000	
22	 N34	7.513	0.125	21.247	N.pl3	1	LIG1	0.000	
23	 C35	9.151	0.446	23.000	C.3	1	LIG1	0.000	
@<TRIPOS>BOND
1 2 4 3
2 4 14 1
3 5 16 ar
4 3 6 2
5 6 22 1
6 5 7 ar
7 8 13 ar
8 9 15 ar
9 11 12 ar
10 12 18 ar
11 1 13 1
12 9 13 ar
13 8 14 ar
14 10 14 ar
15 10 15 ar
16 15 23 1
17 16 20 ar
18 11 17 ar
19 18 21 ar
20 7 19 ar
21 19 21 ar
22 17 20 ar
23 20 21 ar
24 19 22 1
25 6 23 1
@<TRIPOS>SUBSTRUCTURE
1	LIG1	1	GROUP	1 C	LIG
