# created with PyMOL 3.1.3.1
@<TRIPOS>MOLECULE
predicted
34 39 1                 
SMALL
USER_CHARGES
@<TRIPOS>ATOM
1	 O23	10.778	1.915	24.299	O.2	1	LIG1	0.000	
2	 O24	9.007	0.097	21.347	O.2	1	LIG1	0.000	
3	 N26	6.503	-0.875	17.882	N.2	1	LIG1	0.000	
4	 N27	5.532	3.004	22.765	N.pl3	1	LIG1	0.000	
5	 C28	10.319	0.775	24.147	C.2	1	LIG1	0.000	
6	 C29	8.572	-0.945	21.811	C.2	1	LIG1	0.000	
7	 C30	5.913	2.395	23.945	C.2	1	LIG1	0.000	
8	 C31	7.195	-1.336	18.908	C.2	1	LIG1	0.000	
9	 C32	13.323	-1.246	23.230	C.2	1	LIG1	0.000	
10	 C33	12.544	-0.206	23.663	C.2	1	LIG1	0.000	
11	 C34	11.354	-2.528	22.652	C.2	1	LIG1	0.000	
12	 C35	3.101	0.729	20.858	C.2	1	LIG1	0.000	
13	 C36	3.781	0.232	21.949	C.2	1	LIG1	0.000	
14	 C37	12.747	-2.405	22.731	C.2	1	LIG1	0.000	
15	 C38	11.164	-0.326	23.640	C.2	1	LIG1	0.000	
16	 C39	7.267	2.238	23.871	C.2	1	LIG1	0.000	
17	 C40	10.551	-1.509	23.181	C.2	1	LIG1	0.000	
18	 C41	5.335	-0.266	18.071	C.2	1	LIG1	0.000	
19	 C42	3.609	0.567	19.581	C.2	1	LIG1	0.000	
20	 C43	4.967	-0.407	21.772	C.2	1	LIG1	0.000	
21	 C44	6.758	-1.197	20.226	C.2	1	LIG1	0.000	
22	 C45	7.671	2.796	22.692	C.2	1	LIG1	0.000	
23	 C46	4.811	-0.075	19.374	C.2	1	LIG1	0.000	
24	 C47	5.519	-0.554	20.482	C.2	1	LIG1	0.000	
25	 N48	7.530	-1.633	21.290	N.pl3	1	LIG1	0.000	
26	 N49	8.963	0.547	24.364	N.pl3	1	LIG1	0.000	
27	 N50	6.599	3.256	22.053	N.2	1	LIG1	0.000	
28	 C51	8.119	1.579	24.913	C.3	1	LIG1	0.000	
29	 C52	8.285	-3.765	24.192	C.3	1	LIG1	0.000	
30	 C53	7.344	-2.880	21.987	C.3	1	LIG1	0.000	
31	 C54	8.404	-0.809	24.277	C.3	1	LIG1	0.000	
32	 C55	8.497	-2.970	22.959	C.3	1	LIG1	0.000	
33	 C56	9.049	-1.581	23.096	C.3	1	LIG1	0.000	
34	 F25	13.542	-3.380	22.324	 F	1	LIG1	0.000	
@<TRIPOS>BOND
1 3 18 ar
2 4 27 ar
3 1 5 2
4 5 15 1
5 2 6 2
6 6 33 1
7 4 7 ar
8 3 8 ar
9 9 14 ar
10 9 10 ar
11 11 17 ar
12 12 13 ar
13 13 20 ar
14 11 14 ar
15 14 34 1
16 10 15 ar
17 15 17 ar
18 7 16 ar
19 16 22 ar
20 18 23 ar
21 12 19 ar
22 20 24 ar
23 8 21 ar
24 21 24 ar
25 19 23 ar
26 23 24 ar
27 6 25 1
28 21 25 1
29 5 26 1
30 26 28 1
31 22 27 ar
32 16 28 1
33 29 32 1
34 25 30 1
35 26 31 1
36 30 32 1
37 32 33 1
38 17 33 1
39 31 33 1
@<TRIPOS>SUBSTRUCTURE
1	LIG1	1	GROUP	1 C	LIG
