# created with PyMOL 3.1.3.1
@<TRIPOS>MOLECULE
predicted
33 37 1                 
SMALL
USER_CHARGES
@<TRIPOS>ATOM
1	 O24	10.938	2.035	23.834	O.2	1	LIG1	0.000	
2	 O25	9.375	3.722	24.277	O.2	1	LIG1	0.000	
3	 O26	9.059	0.170	21.102	O.2	1	LIG1	0.000	
4	 N28	6.467	-0.951	17.736	N.2	1	LIG1	0.000	
5	 C29	10.403	0.937	23.775	C.2	1	LIG1	0.000	
6	 C30	8.517	3.202	23.628	C.2	1	LIG1	0.000	
7	 C31	8.590	-0.818	21.625	C.2	1	LIG1	0.000	
8	 C32	7.164	-1.365	18.774	C.2	1	LIG1	0.000	
9	 C33	13.318	-1.341	23.320	C.2	1	LIG1	0.000	
10	 C34	12.586	-0.216	23.576	C.2	1	LIG1	0.000	
11	 C35	11.314	-2.532	22.726	C.2	1	LIG1	0.000	
12	 C36	3.239	1.075	20.656	C.2	1	LIG1	0.000	
13	 C37	3.943	0.647	21.771	C.2	1	LIG1	0.000	
14	 C38	12.701	-2.489	22.892	C.2	1	LIG1	0.000	
15	 C39	11.207	-0.242	23.478	C.2	1	LIG1	0.000	
16	 C40	10.546	-1.407	23.082	C.2	1	LIG1	0.000	
17	 C41	5.327	-0.278	17.914	C.2	1	LIG1	0.000	
18	 C42	3.689	0.769	19.388	C.2	1	LIG1	0.000	
19	 C43	5.090	-0.069	21.610	C.2	1	LIG1	0.000	
20	 C44	6.762	-1.112	20.085	C.2	1	LIG1	0.000	
21	 C45	4.850	0.045	19.199	C.2	1	LIG1	0.000	
22	 C46	5.569	-0.374	20.321	C.2	1	LIG1	0.000	
23	 N47	7.975	3.750	22.538	N.pl3	1	LIG1	0.000	
24	 N48	7.527	-1.507	21.154	N.pl3	1	LIG1	0.000	
25	 N49	9.012	0.826	23.884	N.pl3	1	LIG1	0.000	
26	 C50	8.332	5.050	22.127	C.3	1	LIG1	0.000	
27	 C51	8.054	1.868	23.932	C.3	1	LIG1	0.000	
28	 C52	8.230	-3.436	24.189	C.3	1	LIG1	0.000	
29	 C53	7.299	-2.691	21.925	C.3	1	LIG1	0.000	
30	 C54	8.438	-0.474	24.039	C.3	1	LIG1	0.000	
31	 C55	8.415	-2.739	22.906	C.3	1	LIG1	0.000	
32	 C56	9.043	-1.389	22.945	C.3	1	LIG1	0.000	
33	 F27	13.467	-3.552	22.648	 F	1	LIG1	0.000	
@<TRIPOS>BOND
1 4 17 ar
2 1 5 2
3 2 6 2
4 6 27 1
5 3 7 2
6 7 24 1
7 4 8 ar
8 9 10 ar
9 10 15 ar
10 11 14 ar
11 12 13 ar
12 13 19 ar
13 9 14 ar
14 14 33 1
15 5 15 1
16 11 16 ar
17 15 16 ar
18 17 21 ar
19 12 18 ar
20 19 22 ar
21 8 20 ar
22 20 22 ar
23 18 21 ar
24 21 22 ar
25 6 23 1
26 20 24 1
27 24 29 1
28 5 25 1
29 25 30 1
30 23 26 1
31 25 27 1
32 29 31 1
33 30 32 1
34 28 31 1
35 7 32 1
36 16 32 1
37 31 32 1
@<TRIPOS>SUBSTRUCTURE
1	LIG1	1	GROUP	1 C	LIG
