# created with PyMOL 3.1.3.1
@<TRIPOS>MOLECULE
predicted
32 36 1                 
SMALL
USER_CHARGES
@<TRIPOS>ATOM
1	CL23	13.923	-1.293	21.681	Cl	1	LIG1	0.000	
2	 O21	6.975	-2.978	24.960	O.2	1	LIG1	0.000	
3	 O22	8.823	0.626	21.185	O.2	1	LIG1	0.000	
4	 N24	6.527	0.308	17.589	N.2	1	LIG1	0.000	
5	 N25	9.649	-5.086	26.992	N.2	1	LIG1	0.000	
6	 C26	7.936	-2.440	25.367	C.2	1	LIG1	0.000	
7	 C27	8.336	-0.430	21.498	C.2	1	LIG1	0.000	
8	 C28	9.433	-4.250	28.022	C.2	1	LIG1	0.000	
9	 C29	7.121	-0.320	18.591	C.2	1	LIG1	0.000	
10	 C30	12.783	-0.062	23.771	C.2	1	LIG1	0.000	
11	 C31	11.724	0.228	24.595	C.2	1	LIG1	0.000	
12	 C32	11.305	-1.208	22.280	C.2	1	LIG1	0.000	
13	 C33	3.185	1.872	20.641	C.2	1	LIG1	0.000	
14	 C34	3.798	1.219	21.669	C.2	1	LIG1	0.000	
15	 C35	8.773	-3.153	27.583	C.2	1	LIG1	0.000	
16	 C36	12.575	-0.800	22.623	C.2	1	LIG1	0.000	
17	 C37	10.424	-0.210	24.239	C.2	1	LIG1	0.000	
18	 C38	10.229	-0.864	23.044	C.2	1	LIG1	0.000	
19	 C39	5.406	0.996	17.808	C.2	1	LIG1	0.000	
20	 C40	3.704	1.823	19.359	C.2	1	LIG1	0.000	
21	 C41	4.934	0.508	21.458	C.2	1	LIG1	0.000	
22	 C42	6.632	-0.281	19.872	C.2	1	LIG1	0.000	
23	 C43	8.600	-3.303	26.247	C.2	1	LIG1	0.000	
24	 C44	4.847	1.091	19.097	C.2	1	LIG1	0.000	
25	 C45	5.468	0.435	20.159	C.2	1	LIG1	0.000	
26	 N46	7.282	-0.976	20.904	N.pl3	1	LIG1	0.000	
27	 N47	8.308	-1.200	24.891	N.pl3	1	LIG1	0.000	
28	 N48	9.095	-4.531	25.906	N.2	1	LIG1	0.000	
29	 C49	9.316	-0.100	25.263	C.3	1	LIG1	0.000	
30	 C50	9.163	-5.126	24.665	C.3	1	LIG1	0.000	
31	 C51	7.830	-1.000	23.740	C.3	1	LIG1	0.000	
32	 C52	8.851	-1.270	22.627	C.3	1	LIG1	0.000	
@<TRIPOS>BOND
1 4 19 ar
2 5 8 ar
3 2 6 2
4 6 27 1
5 3 7 2
6 7 26 1
7 8 15 ar
8 4 9 ar
9 10 16 ar
10 10 11 ar
11 12 18 ar
12 13 14 ar
13 14 21 ar
14 15 23 ar
15 1 16 1
16 12 16 ar
17 11 17 ar
18 17 18 ar
19 18 32 1
20 19 24 ar
21 13 20 ar
22 21 25 ar
23 9 22 ar
24 22 25 ar
25 6 23 1
26 20 24 ar
27 24 25 ar
28 22 26 1
29 27 29 1
30 27 31 1
31 5 28 ar
32 23 28 ar
33 17 29 1
34 28 30 1
35 7 32 1
36 31 32 1
@<TRIPOS>SUBSTRUCTURE
1	LIG1	1	GROUP	1 C	LIG
