# created with PyMOL 3.1.3.1
@<TRIPOS>MOLECULE
predicted
16 17 1                 
SMALL
USER_CHARGES
@<TRIPOS>ATOM
1	 O18	-17.008	5.116	4.689	O.2	1	LIG1	0.000	
2	 O19	-18.838	3.583	4.632	O.3	1	LIG1	0.000	
3	 C20	-19.485	8.124	2.710	C.2	1	LIG1	0.000	
4	 C21	-21.187	6.466	2.477	C.2	1	LIG1	0.000	
5	 C22	-18.772	7.258	3.541	C.2	1	LIG1	0.000	
6	 C23	-20.481	5.624	3.303	C.2	1	LIG1	0.000	
7	 C24	-20.671	7.717	2.176	C.2	1	LIG1	0.000	
8	 C25	-19.286	6.029	3.839	C.2	1	LIG1	0.000	
9	 N26	-21.439	8.506	1.281	N.pl3	1	LIG1	0.000	
10	 C27	-22.447	9.333	1.877	C.3	1	LIG1	0.000	
11	 C28	-20.753	9.023	0.142	C.3	1	LIG1	0.000	
12	 C29	-23.317	10.016	0.874	C.3	1	LIG1	0.000	
13	 C30	-21.663	9.677	-0.840	C.3	1	LIG1	0.000	
14	 C31	-18.787	5.336	6.538	C.3	1	LIG1	0.000	
15	 N32	-22.588	10.589	-0.242	N.3	1	LIG1	0.000	
16	 S33	-18.390	4.926	4.903	S.O2	1	LIG1	0.000	
@<TRIPOS>BOND
1 3 7 ar
2 4 6 ar
3 3 5 ar
4 4 7 ar
5 7 9 1
6 5 8 ar
7 6 8 ar
8 9 10 1
9 9 11 1
10 10 12 1
11 12 15 1
12 11 13 1
13 14 16 1
14 13 15 1
15 1 16 2
16 2 16 1
17 8 16 1
@<TRIPOS>SUBSTRUCTURE
1	LIG1	1	GROUP	1 C	LIG
