# created with PyMOL 3.1.3.1
@<TRIPOS>MOLECULE
predicted
31 35 1                 
SMALL
USER_CHARGES
@<TRIPOS>ATOM
1	CL27	13.830	-1.962	21.528	Cl	1	LIG1	0.000	
2	 O25	6.711	3.243	23.048	O.2	1	LIG1	0.000	
3	 O26	9.060	1.493	21.206	O.2	1	LIG1	0.000	
4	 N28	6.706	0.283	17.744	N.2	1	LIG1	0.000	
5	 C29	7.471	3.775	23.769	C.2	1	LIG1	0.000	
6	 C30	8.676	0.436	21.703	C.2	1	LIG1	0.000	
7	 C31	7.367	-0.152	18.784	C.2	1	LIG1	0.000	
8	 C32	13.443	0.243	23.026	C.2	1	LIG1	0.000	
9	 C33	12.669	1.153	23.694	C.2	1	LIG1	0.000	
10	 C34	11.451	-0.944	22.328	C.2	1	LIG1	0.000	
11	 C35	3.413	2.211	20.652	C.2	1	LIG1	0.000	
12	 C36	4.075	1.753	21.748	C.2	1	LIG1	0.000	
13	 C37	12.833	-0.815	22.348	C.2	1	LIG1	0.000	
14	 C38	11.292	1.032	23.673	C.2	1	LIG1	0.000	
15	 C39	10.660	-0.067	23.054	C.2	1	LIG1	0.000	
16	 C40	5.568	0.952	17.911	C.2	1	LIG1	0.000	
17	 C41	3.895	1.962	19.377	C.2	1	LIG1	0.000	
18	 C42	5.220	1.062	21.595	C.2	1	LIG1	0.000	
19	 C43	6.950	0.081	20.094	C.2	1	LIG1	0.000	
20	 C44	5.057	1.245	19.189	C.2	1	LIG1	0.000	
21	 C45	5.740	0.799	20.310	C.2	1	LIG1	0.000	
22	 N46	7.766	5.015	23.587	N.pl3	1	LIG1	0.000	
23	 N47	7.698	-0.325	21.177	N.pl3	1	LIG1	0.000	
24	 C48	7.046	5.795	22.600	C.3	1	LIG1	0.000	
25	 C49	7.579	-1.589	21.871	C.3	1	LIG1	0.000	
26	 C50	8.665	-1.543	22.984	C.3	1	LIG1	0.000	
27	 C51	8.245	2.966	24.787	C.3	1	LIG1	0.000	
28	 C52	10.496	2.063	24.463	C.3	1	LIG1	0.000	
29	 C53	8.556	0.633	24.157	C.3	1	LIG1	0.000	
30	 C54	9.190	-0.150	22.987	C.3	1	LIG1	0.000	
31	 N55	9.031	2.037	24.059	N.3	1	LIG1	0.000	
@<TRIPOS>BOND
1 4 16 ar
2 2 5 2
3 5 27 1
4 3 6 2
5 4 7 ar
6 8 13 ar
7 8 9 ar
8 10 15 ar
9 11 12 ar
10 12 18 ar
11 1 13 1
12 10 13 ar
13 9 14 ar
14 14 15 ar
15 15 30 1
16 16 20 ar
17 11 17 ar
18 18 21 ar
19 7 19 ar
20 19 21 ar
21 17 20 ar
22 20 21 ar
23 5 22 1
24 6 23 1
25 19 23 1
26 22 24 1
27 23 25 1
28 25 26 1
29 27 31 1
30 14 28 1
31 6 30 1
32 26 30 1
33 29 30 1
34 28 31 1
35 29 31 1
@<TRIPOS>SUBSTRUCTURE
1	LIG1	1	GROUP	1 C	LIG
