# created with PyMOL 3.1.3.1
@<TRIPOS>MOLECULE
predicted
40 45 1                 
SMALL
USER_CHARGES
@<TRIPOS>ATOM
1	CL31	13.550	-3.338	22.107	Cl	1	LIG1	0.000	
2	 O28	10.642	2.224	24.335	O.2	1	LIG1	0.000	
3	 O29	5.946	2.415	23.967	O.2	1	LIG1	0.000	
4	 O30	8.785	0.465	21.350	O.2	1	LIG1	0.000	
5	 N32	5.824	-5.555	27.002	N.2	1	LIG1	0.000	
6	 N33	6.380	-0.803	17.804	N.2	1	LIG1	0.000	
7	 S34	5.736	-6.290	24.735	S.2	1	LIG1	0.000	
8	 C35	10.158	1.096	24.173	C.2	1	LIG1	0.000	
9	 C36	7.107	2.599	23.909	C.2	1	LIG1	0.000	
10	 C37	8.396	-0.602	21.790	C.2	1	LIG1	0.000	
11	 C38	5.164	-6.364	26.230	C.2	1	LIG1	0.000	
12	 C39	6.776	-4.855	26.346	C.2	1	LIG1	0.000	
13	 C40	7.069	-1.232	18.859	C.2	1	LIG1	0.000	
14	 C41	6.852	-5.194	25.026	C.2	1	LIG1	0.000	
15	 C42	13.116	-0.943	23.189	C.2	1	LIG1	0.000	
16	 C43	12.352	0.091	23.651	C.2	1	LIG1	0.000	
17	 C44	11.128	-2.184	22.625	C.2	1	LIG1	0.000	
18	 C45	3.077	1.107	20.708	C.2	1	LIG1	0.000	
19	 C46	3.767	0.681	21.828	C.2	1	LIG1	0.000	
20	 C47	12.513	-2.074	22.674	C.2	1	LIG1	0.000	
21	 C48	10.978	-0.003	23.652	C.2	1	LIG1	0.000	
22	 C49	10.358	-1.172	23.168	C.2	1	LIG1	0.000	
23	 C50	5.245	-0.161	17.982	C.2	1	LIG1	0.000	
24	 C51	3.564	0.830	19.430	C.2	1	LIG1	0.000	
25	 C52	4.924	-0.006	21.676	C.2	1	LIG1	0.000	
26	 C53	6.663	-0.970	20.163	C.2	1	LIG1	0.000	
27	 C54	4.734	0.137	19.255	C.2	1	LIG1	0.000	
28	 C55	5.437	-0.280	20.388	C.2	1	LIG1	0.000	
29	 N56	7.630	3.311	22.899	N.pl3	1	LIG1	0.000	
30	 N57	7.710	-4.662	24.070	N.pl3	1	LIG1	0.000	
31	 N58	7.417	-1.365	21.237	N.pl3	1	LIG1	0.000	
32	 N59	8.801	0.896	24.372	N.pl3	1	LIG1	0.000	
33	 C60	4.019	-7.196	26.694	C.3	1	LIG1	0.000	
34	 C61	6.809	3.998	21.944	C.3	1	LIG1	0.000	
35	 C62	8.024	1.969	24.908	C.3	1	LIG1	0.000	
36	 C63	8.227	-3.348	24.208	C.3	1	LIG1	0.000	
37	 C64	7.271	-2.593	21.911	C.3	1	LIG1	0.000	
38	 C65	8.230	-0.431	24.272	C.3	1	LIG1	0.000	
39	 C66	8.326	-2.616	22.965	C.3	1	LIG1	0.000	
40	 C67	8.858	-1.237	23.081	C.3	1	LIG1	0.000	
@<TRIPOS>BOND
1 5 11 ar
2 6 23 ar
3 2 8 2
4 3 9 2
5 9 35 1
6 4 10 2
7 10 31 1
8 7 11 ar
9 11 33 1
10 5 12 ar
11 6 13 ar
12 7 14 ar
13 12 14 ar
14 15 16 ar
15 16 21 ar
16 17 20 ar
17 18 19 ar
18 19 25 ar
19 1 20 1
20 15 20 ar
21 8 21 1
22 17 22 ar
23 21 22 ar
24 23 27 ar
25 18 24 ar
26 25 28 ar
27 13 26 ar
28 26 28 ar
29 24 27 ar
30 27 28 ar
31 9 29 1
32 14 30 1
33 26 31 1
34 31 37 1
35 8 32 1
36 32 38 1
37 29 34 1
38 32 35 1
39 30 36 1
40 37 39 1
41 38 40 1
42 36 39 1
43 10 40 1
44 22 40 1
45 39 40 1
@<TRIPOS>SUBSTRUCTURE
1	LIG1	1	GROUP	1 C	LIG
