# created with PyMOL 3.1.3.1
@<TRIPOS>MOLECULE
predicted
22 25 1                 
SMALL
USER_CHARGES
@<TRIPOS>ATOM
1	 O17	8.540	0.209	21.073	O.2	1	LIG1	0.000	
2	 N18	6.353	-0.674	17.569	N.2	1	LIG1	0.000	
3	 S19	13.021	-1.166	24.048	S.2	1	LIG1	0.000	
4	 C20	8.401	-0.932	21.542	C.2	1	LIG1	0.000	
5	 C21	7.001	-1.271	18.571	C.2	1	LIG1	0.000	
6	 C22	13.422	-2.595	23.312	C.2	1	LIG1	0.000	
7	 C23	11.393	-1.273	23.778	C.2	1	LIG1	0.000	
8	 C24	12.281	-3.146	22.786	C.2	1	LIG1	0.000	
9	 C25	3.152	1.093	20.596	C.2	1	LIG1	0.000	
10	 C26	3.788	0.517	21.638	C.2	1	LIG1	0.000	
11	 C27	11.139	-2.412	23.024	C.2	1	LIG1	0.000	
12	 C28	5.269	0.014	17.777	C.2	1	LIG1	0.000	
13	 C29	3.627	0.943	19.317	C.2	1	LIG1	0.000	
14	 C30	4.922	-0.216	21.450	C.2	1	LIG1	0.000	
15	 C31	6.569	-1.154	19.858	C.2	1	LIG1	0.000	
16	 C32	4.757	0.204	19.065	C.2	1	LIG1	0.000	
17	 C33	5.423	-0.397	20.156	C.2	1	LIG1	0.000	
18	 N34	9.014	-1.460	22.649	N.pl3	1	LIG1	0.000	
19	 C35	7.381	-1.825	20.941	C.3	1	LIG1	0.000	
20	 C36	9.702	-2.707	22.618	C.3	1	LIG1	0.000	
21	 C37	10.352	-0.265	24.080	C.3	1	LIG1	0.000	
22	 C38	8.998	-0.822	23.899	C.3	1	LIG1	0.000	
@<TRIPOS>BOND
1 1 4 2
2 2 12 ar
3 3 6 ar
4 4 18 1
5 4 19 1
6 2 5 ar
7 6 8 ar
8 3 7 ar
9 7 11 ar
10 8 11 ar
11 9 10 ar
12 10 14 ar
13 11 20 1
14 12 16 ar
15 9 13 ar
16 14 17 ar
17 5 15 ar
18 15 17 ar
19 13 16 ar
20 16 17 ar
21 18 20 1
22 18 22 1
23 15 19 1
24 7 21 1
25 21 22 1
@<TRIPOS>SUBSTRUCTURE
1	LIG1	1	GROUP	1 C	LIG
