# created with PyMOL 3.1.3.1
@<TRIPOS>MOLECULE
predicted
30 33 1                 
SMALL
USER_CHARGES
@<TRIPOS>ATOM
1	 O34	-1.465	4.067	20.419	O.3	1	LIG1	0.000	
2	 O35	-11.079	0.987	20.189	O.3	1	LIG1	0.000	
3	 S36	-15.678	4.005	21.381	S.3	1	LIG1	0.000	
4	 S37	-7.080	2.961	17.761	S.3	1	LIG1	0.000	
5	 C38	-17.882	1.399	18.358	C.2	1	LIG1	0.000	
6	 C39	-18.570	2.143	19.338	C.2	1	LIG1	0.000	
7	 C40	-16.488	1.507	18.324	C.2	1	LIG1	0.000	
8	 C41	-10.664	4.760	17.370	C.2	1	LIG1	0.000	
9	 C42	-17.885	2.932	20.227	C.2	1	LIG1	0.000	
10	 C43	-15.845	2.303	19.227	C.2	1	LIG1	0.000	
11	 C44	-9.314	4.455	17.230	C.2	1	LIG1	0.000	
12	 C45	-11.428	4.018	18.213	C.2	1	LIG1	0.000	
13	 C46	-9.551	2.631	18.757	C.2	1	LIG1	0.000	
14	 C47	-16.512	3.029	20.183	C.2	1	LIG1	0.000	
15	 C48	-8.784	3.399	17.941	C.2	1	LIG1	0.000	
16	 C49	-10.867	2.958	18.929	C.2	1	LIG1	0.000	
17	 N50	-13.162	2.045	21.686	N.3	1	LIG1	0.000	
18	 C51	-11.877	0.127	20.989	C.3	1	LIG1	0.000	
19	 C52	-1.897	4.678	19.206	C.3	1	LIG1	0.000	
20	 C53	-2.260	2.876	20.741	C.3	1	LIG1	0.000	
21	 C54	-15.206	2.816	22.624	C.3	1	LIG1	0.000	
22	 C55	-6.428	3.140	19.384	C.3	1	LIG1	0.000	
23	 C56	-11.756	2.141	19.756	C.3	1	LIG1	0.000	
24	 C57	-12.502	0.817	22.138	C.3	1	LIG1	0.000	
25	 C58	-13.768	2.732	22.835	C.3	1	LIG1	0.000	
26	 C59	-12.341	2.873	20.898	C.3	1	LIG1	0.000	
27	 C60	-3.313	5.037	19.265	C.3	1	LIG1	0.000	
28	 C61	-3.709	3.192	20.765	C.3	1	LIG1	0.000	
29	 C62	-5.504	4.263	19.505	C.3	1	LIG1	0.000	
30	 N63	-4.142	3.875	19.547	N.3	1	LIG1	0.000	
@<TRIPOS>BOND
1 1 20 1
2 3 14 1
3 4 22 1
4 5 7 ar
5 5 6 ar
6 7 10 ar
7 8 11 ar
8 6 9 ar
9 11 15 ar
10 8 12 ar
11 12 16 ar
12 13 16 ar
13 9 14 ar
14 10 14 ar
15 4 15 1
16 13 15 ar
17 16 23 1
18 17 24 1
19 17 25 1
20 2 18 1
21 1 19 1
22 20 28 1
23 3 21 1
24 22 29 1
25 2 23 1
26 23 26 1
27 18 24 1
28 21 25 1
29 17 26 1
30 19 27 1
31 29 30 1
32 27 30 1
33 28 30 1
@<TRIPOS>SUBSTRUCTURE
1	LIG1	1	GROUP	1 C	LIG
