# created with PyMOL 3.1.3.1
@<TRIPOS>MOLECULE
predicted
36 41 1                 
SMALL
USER_CHARGES
@<TRIPOS>ATOM
1	CL33	13.516	-3.451	22.581	Cl	1	LIG1	0.000	
2	 O31	10.516	2.368	23.991	O.2	1	LIG1	0.000	
3	 O32	8.747	0.342	21.194	O.2	1	LIG1	0.000	
4	 N34	6.341	-0.926	17.764	N.2	1	LIG1	0.000	
5	 O35	5.754	6.389	22.139	O.3	1	LIG1	0.000	
6	 C36	10.049	1.222	23.920	C.2	1	LIG1	0.000	
7	 C37	8.326	-0.677	21.727	C.2	1	LIG1	0.000	
8	 C38	7.010	-1.324	18.832	C.2	1	LIG1	0.000	
9	 C39	13.048	-0.912	23.296	C.2	1	LIG1	0.000	
10	 C40	12.270	0.172	23.587	C.2	1	LIG1	0.000	
11	 C41	11.067	-2.215	22.800	C.2	1	LIG1	0.000	
12	 C42	3.015	1.101	20.582	C.2	1	LIG1	0.000	
13	 C43	3.690	0.676	21.713	C.2	1	LIG1	0.000	
14	 C44	12.468	-2.094	22.900	C.2	1	LIG1	0.000	
15	 C45	10.895	0.066	23.549	C.2	1	LIG1	0.000	
16	 C46	10.278	-1.151	23.198	C.2	1	LIG1	0.000	
17	 C47	5.197	-0.264	17.904	C.2	1	LIG1	0.000	
18	 C48	3.515	0.781	19.319	C.2	1	LIG1	0.000	
19	 C49	4.834	-0.041	21.587	C.2	1	LIG1	0.000	
20	 C50	6.560	-1.083	20.131	C.2	1	LIG1	0.000	
21	 C51	4.670	0.063	19.167	C.2	1	LIG1	0.000	
22	 C52	5.354	-0.346	20.329	C.2	1	LIG1	0.000	
23	 N53	7.321	-1.443	21.240	N.pl3	1	LIG1	0.000	
24	 N54	8.682	1.030	24.099	N.pl3	1	LIG1	0.000	
25	 C55	4.761	5.355	22.503	C.3	1	LIG1	0.000	
26	 C56	6.850	6.349	23.131	C.3	1	LIG1	0.000	
27	 C57	7.831	2.130	24.406	C.3	1	LIG1	0.000	
28	 C58	8.018	-3.282	24.336	C.3	1	LIG1	0.000	
29	 C59	7.136	-2.611	22.014	C.3	1	LIG1	0.000	
30	 C60	8.139	-0.299	24.172	C.3	1	LIG1	0.000	
31	 C61	5.432	4.018	22.313	C.3	1	LIG1	0.000	
32	 C62	7.566	5.023	22.993	C.3	1	LIG1	0.000	
33	 C63	7.244	2.647	23.101	C.3	1	LIG1	0.000	
34	 C64	8.226	-2.585	23.059	C.3	1	LIG1	0.000	
35	 C65	8.779	-1.200	23.077	C.3	1	LIG1	0.000	
36	 N66	6.597	3.925	23.248	N.3	1	LIG1	0.000	
@<TRIPOS>BOND
1 4 17 ar
2 5 26 1
3 2 6 2
4 6 15 1
5 3 7 2
6 7 35 1
7 4 8 ar
8 9 14 ar
9 9 10 ar
10 11 16 ar
11 12 13 ar
12 13 19 ar
13 1 14 1
14 11 14 ar
15 10 15 ar
16 15 16 ar
17 17 21 ar
18 12 18 ar
19 19 22 ar
20 8 20 ar
21 20 22 ar
22 18 21 ar
23 21 22 ar
24 7 23 1
25 20 23 1
26 6 24 1
27 24 27 1
28 5 25 1
29 26 32 1
30 27 33 1
31 28 34 1
32 23 29 1
33 24 30 1
34 25 31 1
35 33 36 1
36 29 34 1
37 34 35 1
38 16 35 1
39 30 35 1
40 31 36 1
41 32 36 1
@<TRIPOS>SUBSTRUCTURE
1	LIG1	1	GROUP	1 C	LIG
