# created with PyMOL 3.1.3.1
@<TRIPOS>MOLECULE
predicted
23 26 1                 
SMALL
USER_CHARGES
@<TRIPOS>ATOM
1	 O19	8.688	0.226	21.415	O.2	1	LIG1	0.000	
2	 N20	6.512	-0.663	17.861	N.2	1	LIG1	0.000	
3	 S21	13.489	-1.094	23.414	S.2	1	LIG1	0.000	
4	 C22	8.503	-0.858	21.904	C.2	1	LIG1	0.000	
5	 C23	7.162	-1.256	18.854	C.2	1	LIG1	0.000	
6	 C24	13.333	-2.413	22.397	C.2	1	LIG1	0.000	
7	 C25	11.808	-1.150	23.873	C.2	1	LIG1	0.000	
8	 C26	12.048	-2.879	22.389	C.2	1	LIG1	0.000	
9	 C27	3.300	1.064	20.902	C.2	1	LIG1	0.000	
10	 C28	3.943	0.471	21.943	C.2	1	LIG1	0.000	
11	 C29	11.176	-2.199	23.217	C.2	1	LIG1	0.000	
12	 C30	5.425	0.013	18.061	C.2	1	LIG1	0.000	
13	 C31	3.773	0.930	19.604	C.2	1	LIG1	0.000	
14	 C32	5.087	-0.243	21.747	C.2	1	LIG1	0.000	
15	 C33	6.743	-1.162	20.163	C.2	1	LIG1	0.000	
16	 C34	4.916	0.192	19.359	C.2	1	LIG1	0.000	
17	 C35	5.582	-0.412	20.457	C.2	1	LIG1	0.000	
18	 N36	8.993	-1.254	23.151	N.pl3	1	LIG1	0.000	
19	 C37	7.563	-1.825	21.245	C.3	1	LIG1	0.000	
20	 C38	9.692	-2.480	23.389	C.3	1	LIG1	0.000	
21	 C39	11.206	-0.106	24.812	C.3	1	LIG1	0.000	
22	 C40	8.795	-0.470	24.323	C.3	1	LIG1	0.000	
23	 C41	9.891	0.539	24.428	C.3	1	LIG1	0.000	
@<TRIPOS>BOND
1 1 4 2
2 2 12 ar
3 3 6 ar
4 4 18 1
5 4 19 1
6 2 5 ar
7 6 8 ar
8 3 7 ar
9 7 11 ar
10 8 11 ar
11 9 10 ar
12 10 14 ar
13 11 20 1
14 12 16 ar
15 9 13 ar
16 14 17 ar
17 5 15 ar
18 15 17 ar
19 13 16 ar
20 16 17 ar
21 18 20 1
22 18 22 1
23 15 19 1
24 7 21 1
25 22 23 1
26 21 23 1
@<TRIPOS>SUBSTRUCTURE
1	LIG1	1	GROUP	1 C	LIG
