# created with PyMOL 3.1.3.1
@<TRIPOS>MOLECULE
predicted
33 37 1                 
SMALL
USER_CHARGES
@<TRIPOS>ATOM
1	CL29	13.939	-1.526	21.534	Cl	1	LIG1	0.000	
2	 O26	9.146	0.458	21.239	O.2	1	LIG1	0.000	
3	 O27	6.832	-0.886	26.871	O.2	1	LIG1	0.000	
4	 O28	5.811	-1.614	24.862	O.2	1	LIG1	0.000	
5	 N30	6.754	0.279	17.562	N.2	1	LIG1	0.000	
6	 C31	8.530	-0.529	21.581	C.2	1	LIG1	0.000	
7	 C32	7.317	-0.319	18.610	C.2	1	LIG1	0.000	
8	 C33	12.974	-1.849	23.928	C.3	1	LIG1	0.000	
9	 C34	11.939	-1.952	24.848	C.3	1	LIG1	0.000	
10	 C35	11.381	-1.457	22.233	C.3	1	LIG1	0.000	
11	 C36	3.332	1.918	20.451	C.2	1	LIG1	0.000	
12	 C37	3.913	1.295	21.535	C.2	1	LIG1	0.000	
13	 C38	12.677	-1.601	22.624	C.3	1	LIG1	0.000	
14	 C39	10.599	-1.790	24.457	C.3	1	LIG1	0.000	
15	 C40	10.323	-1.494	23.134	C.3	1	LIG1	0.000	
16	 C41	5.637	0.960	17.719	C.2	1	LIG1	0.000	
17	 C42	3.890	1.829	19.190	C.2	1	LIG1	0.000	
18	 C43	5.053	0.577	21.400	C.2	1	LIG1	0.000	
19	 C44	6.815	-0.271	19.897	C.2	1	LIG1	0.000	
20	 C45	5.045	1.093	19.004	C.2	1	LIG1	0.000	
21	 C46	5.632	0.463	20.117	C.2	1	LIG1	0.000	
22	 N47	7.405	-0.960	20.977	N.pl3	1	LIG1	0.000	
23	 N48	6.686	-3.344	26.260	N.3	1	LIG1	0.000	
24	 N49	8.237	-1.637	24.964	N.3	1	LIG1	0.000	
25	 C50	9.522	-1.919	25.491	C.3	1	LIG1	0.000	
26	 C51	6.250	-4.374	25.379	C.3	1	LIG1	0.000	
27	 C52	6.139	-5.583	28.971	C.3	1	LIG1	0.000	
28	 C53	6.882	-3.682	27.610	C.3	1	LIG1	0.000	
29	 C54	5.899	-5.496	26.400	C.3	1	LIG1	0.000	
30	 C55	8.091	-0.902	23.893	C.3	1	LIG1	0.000	
31	 C56	6.529	-5.147	27.670	C.3	1	LIG1	0.000	
32	 C57	8.922	-1.380	22.721	C.3	1	LIG1	0.000	
33	 S58	6.869	-1.835	25.793	S.O2	1	LIG1	0.000	
@<TRIPOS>BOND
1 5 16 ar
2 2 6 2
3 6 22 1
4 5 7 ar
5 8 13 1
6 8 9 1
7 10 15 1
8 11 12 ar
9 12 18 ar
10 1 13 1
11 10 13 1
12 9 14 1
13 14 15 1
14 15 32 1
15 16 20 ar
16 11 17 ar
17 18 21 ar
18 7 19 ar
19 19 21 ar
20 17 20 ar
21 20 21 ar
22 19 22 1
23 23 28 1
24 23 33 1
25 24 25 1
26 24 30 1
27 14 25 1
28 23 26 1
29 27 31 1
30 26 29 1
31 28 31 1
32 29 31 1
33 6 32 1
34 30 32 1
35 3 33 2
36 4 33 2
37 24 33 1
@<TRIPOS>SUBSTRUCTURE
1	LIG1	1	GROUP	1 C	LIG
