# created with PyMOL 3.1.3.1
@<TRIPOS>MOLECULE
predicted
17 18 1                 
SMALL
USER_CHARGES
@<TRIPOS>ATOM
1	 O12	11.465	-0.911	24.183	O.2	1	LIG1	0.000	
2	 O13	13.214	-0.388	22.616	O.2	1	LIG1	0.000	
3	 N14	9.594	-2.413	23.113	N.2	1	LIG1	0.000	
4	 C15	8.455	-2.986	23.455	C.2	1	LIG1	0.000	
5	 C16	9.569	-1.299	22.320	C.2	1	LIG1	0.000	
6	 C17	7.224	-2.474	23.059	C.2	1	LIG1	0.000	
7	 C18	8.353	-0.764	21.870	C.2	1	LIG1	0.000	
8	 C19	7.175	-1.357	22.230	C.2	1	LIG1	0.000	
9	 C20	10.724	3.643	22.746	C.2	1	LIG1	0.000	
10	 C21	12.009	3.377	24.723	C.2	1	LIG1	0.000	
11	 C22	10.916	2.319	22.458	C.2	1	LIG1	0.000	
12	 C23	12.198	2.051	24.445	C.2	1	LIG1	0.000	
13	 C24	11.273	4.195	23.879	C.2	1	LIG1	0.000	
14	 C25	11.646	1.497	23.323	C.2	1	LIG1	0.000	
15	 N26	11.116	5.523	24.156	N.pl3	1	LIG1	0.000	
16	 N27	10.763	-0.684	21.897	N.pl3	1	LIG1	0.000	
17	 S28	11.840	-0.195	23.006	S.O2	1	LIG1	0.000	
@<TRIPOS>BOND
1 3 4 ar
2 3 5 ar
3 5 7 ar
4 4 6 ar
5 7 8 ar
6 6 8 ar
7 9 11 ar
8 11 14 ar
9 10 12 ar
10 9 13 ar
11 10 13 ar
12 12 14 ar
13 14 17 1
14 13 15 1
15 5 16 1
16 1 17 2
17 2 17 2
18 16 17 1
@<TRIPOS>SUBSTRUCTURE
1	LIG1	1	GROUP	1 C	LIG
