# created with PyMOL 3.1.3.1
@<TRIPOS>MOLECULE
predicted
42 48 1                 
SMALL
USER_CHARGES
@<TRIPOS>ATOM
1	CL28	13.612	-3.359	22.462	Cl	1	LIG1	0.000	
2	 O26	10.507	2.092	24.719	O.2	1	LIG1	0.000	
3	 O27	8.813	0.363	21.641	O.2	1	LIG1	0.000	
4	 N29	5.083	2.978	23.652	N.2	1	LIG1	0.000	
5	 N30	5.661	2.234	24.666	N.2	1	LIG1	0.000	
6	 N31	3.774	-5.773	24.536	N.2	1	LIG1	0.000	
7	 N32	5.556	-4.299	24.840	N.2	1	LIG1	0.000	
8	 N33	6.482	-0.848	18.002	N.2	1	LIG1	0.000	
9	 O34	7.251	3.143	23.463	O.2	1	LIG1	0.000	
10	 C35	10.060	0.958	24.511	C.2	1	LIG1	0.000	
11	 C36	8.425	-0.718	22.054	C.2	1	LIG1	0.000	
12	 C37	4.282	-4.583	24.951	C.2	1	LIG1	0.000	
13	 C38	6.071	3.526	22.953	C.2	1	LIG1	0.000	
14	 C39	6.938	2.354	24.524	C.2	1	LIG1	0.000	
15	 C40	4.606	-6.721	24.025	C.2	1	LIG1	0.000	
16	 C41	7.154	-1.299	19.064	C.2	1	LIG1	0.000	
17	 C42	6.425	-5.208	24.310	C.2	1	LIG1	0.000	
18	 C43	5.974	-6.457	23.905	C.2	1	LIG1	0.000	
19	 C44	13.097	-0.987	23.557	C.2	1	LIG1	0.000	
20	 C45	12.293	0.033	24.000	C.2	1	LIG1	0.000	
21	 C46	11.168	-2.284	22.933	C.2	1	LIG1	0.000	
22	 C47	3.124	0.983	20.889	C.2	1	LIG1	0.000	
23	 C48	3.799	0.527	22.005	C.2	1	LIG1	0.000	
24	 C49	12.547	-2.137	23.022	C.2	1	LIG1	0.000	
25	 C50	10.925	-0.097	23.971	C.2	1	LIG1	0.000	
26	 C51	10.358	-1.284	23.461	C.2	1	LIG1	0.000	
27	 C52	5.328	-0.214	18.176	C.2	1	LIG1	0.000	
28	 C53	3.629	0.734	19.627	C.2	1	LIG1	0.000	
29	 C54	4.965	-0.145	21.871	C.2	1	LIG1	0.000	
30	 C55	6.713	-1.058	20.374	C.2	1	LIG1	0.000	
31	 C56	4.802	0.058	19.454	C.2	1	LIG1	0.000	
32	 C57	5.489	-0.381	20.598	C.2	1	LIG1	0.000	
33	 N58	7.742	-4.922	24.184	N.pl3	1	LIG1	0.000	
34	 N59	7.462	-1.471	21.468	N.pl3	1	LIG1	0.000	
35	 N60	8.726	0.698	24.727	N.pl3	1	LIG1	0.000	
36	 C61	5.857	4.386	21.792	C.3	1	LIG1	0.000	
37	 C62	7.948	1.690	25.409	C.3	1	LIG1	0.000	
38	 C63	8.266	-3.569	24.393	C.3	1	LIG1	0.000	
39	 C64	7.324	-2.716	22.112	C.3	1	LIG1	0.000	
40	 C65	8.179	-0.630	24.545	C.3	1	LIG1	0.000	
41	 C66	8.358	-2.770	23.182	C.3	1	LIG1	0.000	
42	 C67	8.860	-1.376	23.355	C.3	1	LIG1	0.000	
@<TRIPOS>BOND
1 4 5 ar
2 5 14 ar
3 6 12 ar
4 8 27 ar
5 2 10 2
6 3 11 2
7 11 34 1
8 7 12 ar
9 4 13 ar
10 9 13 ar
11 9 14 ar
12 14 37 1
13 6 15 ar
14 8 16 ar
15 7 17 ar
16 17 18 ar
17 15 18 ar
18 19 20 ar
19 20 25 ar
20 21 24 ar
21 22 23 ar
22 23 29 ar
23 1 24 1
24 19 24 ar
25 10 25 1
26 21 26 ar
27 25 26 ar
28 27 31 ar
29 22 28 ar
30 29 32 ar
31 16 30 ar
32 30 32 ar
33 28 31 ar
34 31 32 ar
35 17 33 1
36 30 34 1
37 34 39 1
38 10 35 1
39 35 40 1
40 13 36 1
41 35 37 1
42 33 38 1
43 39 41 1
44 40 42 1
45 38 41 1
46 11 42 1
47 26 42 1
48 41 42 1
@<TRIPOS>SUBSTRUCTURE
1	LIG1	1	GROUP	1 C	LIG
