# created with PyMOL 3.1.3.1
@<TRIPOS>MOLECULE
predicted
21 22 1                 
SMALL
USER_CHARGES
@<TRIPOS>ATOM
1	CL21	13.897	-1.664	21.722	Cl	1	LIG1	0.000	
2	 O20	8.945	1.438	21.048	O.2	1	LIG1	0.000	
3	 N22	6.589	0.502	17.621	N.2	1	LIG1	0.000	
4	 C23	8.485	0.480	21.612	C.2	1	LIG1	0.000	
5	 C24	5.375	1.033	17.723	C.2	1	LIG1	0.000	
6	 C25	7.244	0.076	18.728	C.2	1	LIG1	0.000	
7	 C26	12.445	1.627	23.436	C.2	1	LIG1	0.000	
8	 C27	13.309	0.692	22.913	C.2	1	LIG1	0.000	
9	 C28	4.784	1.257	18.956	C.2	1	LIG1	0.000	
10	 C29	11.073	1.393	23.441	C.2	1	LIG1	0.000	
11	 C30	11.465	-0.735	22.352	C.2	1	LIG1	0.000	
12	 C31	12.805	-0.484	22.368	C.2	1	LIG1	0.000	
13	 C32	6.702	0.272	19.989	C.2	1	LIG1	0.000	
14	 C33	5.419	0.817	20.086	C.2	1	LIG1	0.000	
15	 C34	10.595	0.179	22.909	C.2	1	LIG1	0.000	
16	 N35	7.406	-0.171	21.172	N.pl3	1	LIG1	0.000	
17	 C36	4.822	1.068	21.447	C.3	1	LIG1	0.000	
18	 C37	6.868	-1.167	24.846	C.3	1	LIG1	0.000	
19	 C38	7.591	-0.019	24.953	C.3	1	LIG1	0.000	
20	 C39	8.539	0.555	24.128	C.3	1	LIG1	0.000	
21	 C40	9.116	-0.092	22.895	C.3	1	LIG1	0.000	
@<TRIPOS>BOND
1 3 5 ar
2 2 4 2
3 4 16 1
4 5 9 ar
5 3 6 ar
6 7 8 ar
7 8 12 ar
8 9 14 ar
9 7 10 ar
10 1 12 1
11 11 12 ar
12 6 13 ar
13 13 14 ar
14 14 17 1
15 10 15 ar
16 11 15 ar
17 13 16 1
18 18 19 1
19 19 20 1
20 20 21 1
21 4 21 1
22 15 21 1
@<TRIPOS>SUBSTRUCTURE
1	LIG1	1	GROUP	1 C	LIG
