# created with PyMOL 3.1.3.1
@<TRIPOS>MOLECULE
predicted
28 30 1                 
SMALL
USER_CHARGES
@<TRIPOS>ATOM
1	 O17	5.288	-4.106	19.978	O.2	1	LIG1	0.000	
2	 O18	8.019	-0.738	22.789	O.2	1	LIG1	0.000	
3	 O19	7.141	0.003	24.867	O.2	1	LIG1	0.000	
4	 N21	6.850	0.291	17.659	N.2	1	LIG1	0.000	
5	 O22	8.402	-2.601	20.528	O.3	1	LIG1	0.000	
6	 C23	6.210	-3.544	20.490	C.2	1	LIG1	0.000	
7	 C24	5.726	0.822	18.085	C.2	1	LIG1	0.000	
8	 C25	7.381	-0.841	18.197	C.2	1	LIG1	0.000	
9	 C26	5.047	0.229	19.092	C.2	1	LIG1	0.000	
10	 C27	3.957	-5.318	23.885	C.2	1	LIG1	0.000	
11	 C28	3.724	-4.387	24.852	C.2	1	LIG1	0.000	
12	 C29	8.960	-3.405	26.732	C.2	1	LIG1	0.000	
13	 C30	9.528	-4.312	24.625	C.2	1	LIG1	0.000	
14	 C31	4.851	-5.046	22.840	C.2	1	LIG1	0.000	
15	 C32	4.339	-3.141	24.774	C.2	1	LIG1	0.000	
16	 C33	5.562	-0.968	19.614	C.2	1	LIG1	0.000	
17	 C34	8.239	-2.385	26.101	C.2	1	LIG1	0.000	
18	 C35	8.823	-3.303	23.986	C.2	1	LIG1	0.000	
19	 C36	9.630	-4.352	25.999	C.2	1	LIG1	0.000	
20	 C37	5.502	-3.828	22.778	C.2	1	LIG1	0.000	
21	 C38	5.203	-2.865	23.736	C.2	1	LIG1	0.000	
22	 C39	6.741	-1.502	19.163	C.2	1	LIG1	0.000	
23	 C40	8.191	-2.346	24.751	C.2	1	LIG1	0.000	
24	 N41	6.409	-3.485	21.797	N.pl3	1	LIG1	0.000	
25	 N42	5.786	-1.579	23.550	N.pl3	1	LIG1	0.000	
26	 C43	7.308	-2.843	19.716	C.3	1	LIG1	0.000	
27	 S44	7.315	-1.106	23.985	S.O2	1	LIG1	0.000	
28	 F20	10.298	-5.328	26.608	 F	1	LIG1	0.000	
@<TRIPOS>BOND
1 1 6 2
2 4 8 ar
3 6 24 1
4 6 26 1
5 4 7 ar
6 7 9 ar
7 10 11 ar
8 11 15 ar
9 12 19 ar
10 13 18 ar
11 10 14 ar
12 15 21 ar
13 9 16 ar
14 12 17 ar
15 13 19 ar
16 19 28 1
17 14 20 ar
18 20 21 ar
19 21 25 1
20 8 22 ar
21 16 22 ar
22 17 23 ar
23 18 23 ar
24 20 24 1
25 25 27 1
26 5 26 1
27 22 26 1
28 2 27 2
29 3 27 2
30 23 27 1
@<TRIPOS>SUBSTRUCTURE
1	LIG1	1	GROUP	1 C	LIG
