# created with PyMOL 3.1.3.1
@<TRIPOS>MOLECULE
predicted
19 21 1                 
SMALL
USER_CHARGES
@<TRIPOS>ATOM
1	 O19	9.006	1.412	20.972	O.2	1	LIG1	0.000	
2	 N20	6.702	0.571	17.723	N.2	1	LIG1	0.000	
3	 N21	7.606	-0.088	18.404	N.2	1	LIG1	0.000	
4	 C22	8.991	0.255	21.354	C.2	1	LIG1	0.000	
5	 C23	3.917	2.135	19.550	C.2	1	LIG1	0.000	
6	 C24	4.308	1.753	20.791	C.2	1	LIG1	0.000	
7	 C25	4.644	1.780	18.426	C.2	1	LIG1	0.000	
8	 C26	5.464	1.010	20.968	C.2	1	LIG1	0.000	
9	 C27	5.788	1.034	18.559	C.2	1	LIG1	0.000	
10	 C28	6.176	0.647	19.851	C.2	1	LIG1	0.000	
11	 N29	9.739	-0.113	22.412	N.pl3	1	LIG1	0.000	
12	 N30	7.299	-0.069	19.667	N.2	1	LIG1	0.000	
13	 C31	8.111	-0.710	20.690	C.3	1	LIG1	0.000	
14	 C32	13.718	-1.144	22.998	C.3	1	LIG1	0.000	
15	 C33	9.891	-1.469	22.858	C.3	1	LIG1	0.000	
16	 C34	10.501	0.871	23.156	C.3	1	LIG1	0.000	
17	 C35	11.348	-1.832	22.603	C.3	1	LIG1	0.000	
18	 C36	11.951	0.568	22.920	C.3	1	LIG1	0.000	
19	 C37	12.263	-0.844	23.328	C.3	1	LIG1	0.000	
@<TRIPOS>BOND
1 2 9 ar
2 2 3 ar
3 1 4 2
4 4 13 1
5 5 6 ar
6 6 8 ar
7 5 7 ar
8 8 10 ar
9 7 9 ar
10 9 10 ar
11 4 11 1
12 11 16 1
13 3 12 ar
14 10 12 ar
15 12 13 1
16 14 19 1
17 11 15 1
18 16 18 1
19 15 17 1
20 17 19 1
21 18 19 1
@<TRIPOS>SUBSTRUCTURE
1	LIG1	1	GROUP	1 C	LIG
