# created with PyMOL 3.1.3.1
@<TRIPOS>MOLECULE
predicted
18 19 1                 
SMALL
USER_CHARGES
@<TRIPOS>ATOM
1	 O14	8.967	1.081	20.877	O.2	1	LIG1	0.000	
2	 N16	6.533	0.391	17.523	N.2	1	LIG1	0.000	
3	 C17	8.439	0.201	21.480	C.2	1	LIG1	0.000	
4	 C18	5.395	1.037	17.625	C.2	1	LIG1	0.000	
5	 C19	7.161	-0.069	18.627	C.2	1	LIG1	0.000	
6	 C20	12.214	1.203	23.674	C.2	1	LIG1	0.000	
7	 C21	13.120	0.358	23.073	C.2	1	LIG1	0.000	
8	 C22	4.816	1.308	18.852	C.2	1	LIG1	0.000	
9	 C23	10.857	0.955	23.578	C.2	1	LIG1	0.000	
10	 C24	11.314	-1.017	22.264	C.2	1	LIG1	0.000	
11	 C25	12.650	-0.753	22.377	C.2	1	LIG1	0.000	
12	 C26	6.624	0.137	19.890	C.2	1	LIG1	0.000	
13	 C27	5.436	0.834	19.983	C.2	1	LIG1	0.000	
14	 C28	10.424	-0.163	22.884	C.2	1	LIG1	0.000	
15	 N29	7.272	-0.350	21.060	N.pl3	1	LIG1	0.000	
16	 C30	4.862	1.135	21.328	C.3	1	LIG1	0.000	
17	 C31	8.945	-0.400	22.775	C.3	1	LIG1	0.000	
18	BR15	13.804	-1.928	21.558	Br	1	LIG1	0.000	
@<TRIPOS>BOND
1 2 5 ar
2 1 3 2
3 3 17 1
4 2 4 ar
5 5 12 ar
6 6 7 ar
7 7 11 ar
8 4 8 ar
9 6 9 ar
10 10 11 ar
11 11 18 1
12 12 15 1
13 8 13 ar
14 12 13 ar
15 9 14 ar
16 10 14 ar
17 3 15 1
18 13 16 1
19 14 17 1
@<TRIPOS>SUBSTRUCTURE
1	LIG1	1	GROUP	1 C	LIG
