# created with PyMOL 3.1.3.1
@<TRIPOS>MOLECULE
predicted
28 31 1                 
SMALL
USER_CHARGES
@<TRIPOS>ATOM
1	 O20	8.421	1.227	21.117	O.2	1	LIG1	0.000	
2	 N24	6.246	0.825	17.554	N.2	1	LIG1	0.000	
3	 N25	7.105	0.038	18.148	N.2	1	LIG1	0.000	
4	 C26	8.195	0.055	21.359	C.2	1	LIG1	0.000	
5	 C27	12.530	2.118	23.319	C.2	1	LIG1	0.000	
6	 C28	13.377	1.008	23.147	C.2	1	LIG1	0.000	
7	 C29	11.148	1.930	23.482	C.2	1	LIG1	0.000	
8	 C30	11.507	-0.428	23.268	C.2	1	LIG1	0.000	
9	 C31	3.500	2.329	19.523	C.2	1	LIG1	0.000	
10	 C32	3.854	1.783	20.724	C.2	1	LIG1	0.000	
11	 C33	12.856	-0.273	23.127	C.2	1	LIG1	0.000	
12	 C34	10.652	0.659	23.440	C.2	1	LIG1	0.000	
13	 C35	4.235	2.058	18.370	C.2	1	LIG1	0.000	
14	 C36	4.972	0.950	20.836	C.2	1	LIG1	0.000	
15	 C37	5.344	1.222	18.437	C.2	1	LIG1	0.000	
16	 C38	5.694	0.667	19.685	C.2	1	LIG1	0.000	
17	 N39	8.598	-0.434	22.602	N.pl3	1	LIG1	0.000	
18	 N40	6.794	-0.077	19.428	N.2	1	LIG1	0.000	
19	 C41	13.734	-1.457	22.922	C.3	1	LIG1	0.000	
20	 C42	7.556	-0.874	20.414	C.3	1	LIG1	0.000	
21	 C43	9.261	-2.591	23.800	C.3	1	LIG1	0.000	
22	 C44	7.778	-2.406	24.035	C.3	1	LIG1	0.000	
23	 C45	8.453	-1.901	22.802	C.3	1	LIG1	0.000	
24	 C46	8.623	0.620	24.903	C.3	1	LIG1	0.000	
25	 C47	9.142	0.497	23.557	C.3	1	LIG1	0.000	
26	 F21	13.555	-2.353	23.890	 F	1	LIG1	0.000	
27	 F22	14.978	-1.120	22.967	 F	1	LIG1	0.000	
28	 F23	13.483	-2.022	21.739	 F	1	LIG1	0.000	
@<TRIPOS>BOND
1 2 15 ar
2 2 3 ar
3 1 4 2
4 4 20 1
5 5 6 ar
6 6 11 ar
7 5 7 ar
8 9 10 ar
9 10 14 ar
10 8 11 ar
11 11 19 1
12 7 12 ar
13 8 12 ar
14 9 13 ar
15 14 16 ar
16 13 15 ar
17 15 16 ar
18 4 17 1
19 17 23 1
20 3 18 ar
21 16 18 ar
22 19 26 1
23 19 27 1
24 19 28 1
25 18 20 1
26 21 22 1
27 21 23 1
28 22 23 1
29 24 25 1
30 12 25 1
31 17 25 1
@<TRIPOS>SUBSTRUCTURE
1	LIG1	1	GROUP	1 C	LIG
