# created with PyMOL 3.1.3.1
@<TRIPOS>MOLECULE
predicted
25 27 1                 
SMALL
USER_CHARGES
@<TRIPOS>ATOM
1	 O18	6.169	-4.806	19.672	O.3	1	LIG1	0.000	
2	 O19	6.202	-1.144	26.325	O.2	1	LIG1	0.000	
3	 O20	7.935	-2.327	27.508	O.2	1	LIG1	0.000	
4	 N21	6.806	-3.118	23.295	N.2	1	LIG1	0.000	
5	 S22	5.837	-5.235	22.265	S.2	1	LIG1	0.000	
6	 C23	6.720	-3.659	19.752	C.3	1	LIG1	0.000	
7	 C24	6.572	-3.681	22.134	C.2	1	LIG1	0.000	
8	 C25	13.855	-0.484	23.036	C.3	1	LIG1	0.000	
9	 C26	12.664	0.225	22.988	C.3	1	LIG1	0.000	
10	 C27	13.800	-1.844	23.324	C.3	1	LIG1	0.000	
11	 C28	11.461	-0.403	23.176	C.3	1	LIG1	0.000	
12	 C29	12.590	-2.451	23.509	C.3	1	LIG1	0.000	
13	 C30	6.209	-4.551	26.606	C.2	1	LIG1	0.000	
14	 C31	5.660	-5.747	26.201	C.2	1	LIG1	0.000	
15	 C32	11.427	-1.740	23.484	C.3	1	LIG1	0.000	
16	 C33	6.589	-3.631	25.631	C.2	1	LIG1	0.000	
17	 C34	5.496	-6.041	24.849	C.2	1	LIG1	0.000	
18	 C35	6.460	-3.888	24.307	C.2	1	LIG1	0.000	
19	 C36	5.897	-5.117	23.941	C.2	1	LIG1	0.000	
20	 N37	6.906	-3.076	20.973	N.pl3	1	LIG1	0.000	
21	 N38	8.400	-1.585	25.198	N.3	1	LIG1	0.000	
22	 C39	7.193	-2.860	18.547	C.3	1	LIG1	0.000	
23	 C40	10.113	-2.420	23.713	C.3	1	LIG1	0.000	
24	 C41	9.617	-2.392	25.076	C.3	1	LIG1	0.000	
25	 S42	7.279	-2.101	26.197	S.O2	1	LIG1	0.000	
@<TRIPOS>BOND
1 4 18 ar
2 1 6 1
3 6 20 1
4 4 7 ar
5 5 7 ar
6 8 10 1
7 8 9 1
8 10 12 1
9 9 11 1
10 13 14 ar
11 14 17 ar
12 11 15 1
13 12 15 1
14 13 16 ar
15 16 25 1
16 17 19 ar
17 16 18 ar
18 18 19 ar
19 5 19 ar
20 7 20 1
21 21 24 1
22 6 22 1
23 15 23 1
24 23 24 1
25 2 25 2
26 3 25 2
27 21 25 1
@<TRIPOS>SUBSTRUCTURE
1	LIG1	1	GROUP	1 C	LIG
