# created with PyMOL 3.1.3.1
@<TRIPOS>MOLECULE
predicted
20 22 1                 
SMALL
USER_CHARGES
@<TRIPOS>ATOM
1	 O21	8.669	0.125	21.120	O.2	1	LIG1	0.000	
2	 N22	6.279	-0.865	17.785	N.2	1	LIG1	0.000	
3	 C23	8.503	-0.940	21.649	C.2	1	LIG1	0.000	
4	 C24	6.953	-1.399	18.794	C.2	1	LIG1	0.000	
5	 C25	3.157	1.047	20.812	C.2	1	LIG1	0.000	
6	 C26	3.837	0.532	21.864	C.2	1	LIG1	0.000	
7	 C27	5.209	-0.176	17.996	C.2	1	LIG1	0.000	
8	 C28	3.592	0.834	19.540	C.2	1	LIG1	0.000	
9	 C29	4.974	-0.206	21.679	C.2	1	LIG1	0.000	
10	 C30	6.602	-1.223	20.107	C.2	1	LIG1	0.000	
11	 C31	4.729	0.093	19.289	C.2	1	LIG1	0.000	
12	 C32	5.428	-0.450	20.393	C.2	1	LIG1	0.000	
13	 N33	9.283	-1.276	22.704	N.pl3	1	LIG1	0.000	
14	 C34	7.421	-1.847	21.203	C.3	1	LIG1	0.000	
15	 C35	13.148	-2.702	23.629	C.3	1	LIG1	0.000	
16	 C36	9.296	-2.584	23.322	C.3	1	LIG1	0.000	
17	 C37	10.206	-0.303	23.265	C.3	1	LIG1	0.000	
18	 C38	10.707	-3.144	23.222	C.3	1	LIG1	0.000	
19	 C39	11.603	-0.821	23.144	C.3	1	LIG1	0.000	
20	 C40	11.728	-2.180	23.794	C.3	1	LIG1	0.000	
@<TRIPOS>BOND
1 2 7 ar
2 1 3 2
3 3 14 1
4 2 4 ar
5 5 6 ar
6 6 9 ar
7 7 11 ar
8 5 8 ar
9 9 12 ar
10 4 10 ar
11 10 12 ar
12 8 11 ar
13 11 12 ar
14 3 13 1
15 13 17 1
16 10 14 1
17 15 20 1
18 13 16 1
19 17 19 1
20 16 18 1
21 18 20 1
22 19 20 1
@<TRIPOS>SUBSTRUCTURE
1	LIG1	1	GROUP	1 C	LIG
