# created with PyMOL 3.1.3.1
@<TRIPOS>MOLECULE
predicted
33 36 1                 
SMALL
USER_CHARGES
@<TRIPOS>ATOM
1	CL27	13.577	-1.559	21.618	Cl	1	LIG1	0.000	
2	 N23	2.830	-0.126	28.051	N.3	1	LIG1	0.000	
3	 O24	8.777	0.105	21.809	O.2	1	LIG1	0.000	
4	 O25	5.644	-3.295	25.303	O.2	1	LIG1	0.000	
5	 O26	7.081	-4.542	26.716	O.2	1	LIG1	0.000	
6	 C28	3.575	-1.266	27.999	C.3	1	LIG1	0.000	
7	 N29	6.563	0.136	17.928	N.2	1	LIG1	0.000	
8	 C30	8.204	-0.948	21.981	C.2	1	LIG1	0.000	
9	 C31	7.076	-0.544	18.934	C.2	1	LIG1	0.000	
10	 C32	12.680	-2.731	23.888	C.2	1	LIG1	0.000	
11	 C33	11.683	-3.143	24.776	C.2	1	LIG1	0.000	
12	 C34	11.042	-1.790	22.447	C.2	1	LIG1	0.000	
13	 C35	3.196	1.798	20.846	C.2	1	LIG1	0.000	
14	 C36	3.733	1.106	21.906	C.2	1	LIG1	0.000	
15	 C37	12.343	-2.052	22.728	C.2	1	LIG1	0.000	
16	 C38	10.343	-2.841	24.489	C.2	1	LIG1	0.000	
17	 C39	10.016	-2.137	23.321	C.2	1	LIG1	0.000	
18	 C40	5.480	0.853	18.104	C.2	1	LIG1	0.000	
19	 C41	3.758	1.743	19.579	C.2	1	LIG1	0.000	
20	 C42	4.832	0.337	21.753	C.2	1	LIG1	0.000	
21	 C43	6.578	-0.531	20.226	C.2	1	LIG1	0.000	
22	 C44	4.885	0.957	19.376	C.2	1	LIG1	0.000	
23	 C45	5.427	0.249	20.462	C.2	1	LIG1	0.000	
24	 N46	7.125	-1.324	21.265	N.pl3	1	LIG1	0.000	
25	 N47	6.606	-2.153	27.289	N.3	1	LIG1	0.000	
26	 N48	8.038	-2.752	25.180	N.3	1	LIG1	0.000	
27	 C49	7.445	-1.016	27.301	C.3	1	LIG1	0.000	
28	 C50	9.334	-3.269	25.458	C.3	1	LIG1	0.000	
29	 C51	4.882	-1.146	28.598	C.3	1	LIG1	0.000	
30	 C52	5.712	-2.398	28.361	C.3	1	LIG1	0.000	
31	 C53	7.806	-1.794	24.227	C.3	1	LIG1	0.000	
32	 C54	8.615	-1.933	23.002	C.3	1	LIG1	0.000	
33	 S55	6.811	-3.275	26.095	S.O2	1	LIG1	0.000	
@<TRIPOS>BOND
1 2 6 1
2 7 18 ar
3 3 8 2
4 8 24 1
5 7 9 ar
6 10 15 ar
7 10 11 ar
8 12 17 ar
9 13 14 ar
10 14 20 ar
11 1 15 1
12 12 15 ar
13 11 16 ar
14 16 17 ar
15 17 32 1
16 18 22 ar
17 13 19 ar
18 20 23 ar
19 9 21 ar
20 21 23 ar
21 19 22 ar
22 22 23 ar
23 21 24 1
24 25 30 1
25 25 33 1
26 26 28 1
27 26 31 1
28 25 27 1
29 16 28 1
30 6 29 1
31 29 30 1
32 8 32 1
33 31 32 1
34 4 33 2
35 5 33 2
36 26 33 1
@<TRIPOS>SUBSTRUCTURE
1	LIG1	1	GROUP	1 C	LIG
