# created with PyMOL 3.1.3.1
@<TRIPOS>MOLECULE
predicted
16 17 1                 
SMALL
USER_CHARGES
@<TRIPOS>ATOM
1	CL13	13.627	-1.756	21.727	Cl	1	LIG1	0.000	
2	 N14	6.547	0.372	17.597	N.2	1	LIG1	0.000	
3	 N15	5.423	0.808	19.444	N.2	1	LIG1	0.000	
4	 O16	8.496	1.026	21.218	O.3	1	LIG1	0.000	
5	 C17	5.512	1.061	18.141	C.2	1	LIG1	0.000	
6	 C18	11.610	0.778	24.110	C.2	1	LIG1	0.000	
7	 C19	12.650	0.117	23.445	C.2	1	LIG1	0.000	
8	 C20	10.306	0.455	23.883	C.2	1	LIG1	0.000	
9	 C21	11.051	-1.222	22.308	C.2	1	LIG1	0.000	
10	 C22	12.340	-0.881	22.537	C.2	1	LIG1	0.000	
11	 C23	10.025	-0.563	22.963	C.2	1	LIG1	0.000	
12	 C24	7.098	-0.334	18.584	C.2	1	LIG1	0.000	
13	 N25	6.413	-0.051	19.707	N.2	1	LIG1	0.000	
14	 C26	8.568	-0.885	22.714	C.3	1	LIG1	0.000	
15	 C27	6.680	-0.575	21.076	C.3	1	LIG1	0.000	
16	 C28	8.049	-0.206	21.464	C.3	1	LIG1	0.000	
@<TRIPOS>BOND
1 2 5 ar
2 4 16 1
3 3 5 ar
4 6 7 ar
5 7 10 ar
6 6 8 ar
7 1 10 1
8 9 10 ar
9 8 11 ar
10 9 11 ar
11 2 12 ar
12 3 13 ar
13 12 13 ar
14 11 14 1
15 13 15 1
16 14 16 1
17 15 16 1
@<TRIPOS>SUBSTRUCTURE
1	LIG1	1	GROUP	1 C	LIG
