# created with PyMOL 3.1.3.1
@<TRIPOS>MOLECULE
predicted
16 17 1                 
SMALL
USER_CHARGES
@<TRIPOS>ATOM
1	 O15	9.618	-4.805	25.459	O.2	1	LIG1	0.000	
2	 O16	6.144	-5.210	19.594	O.2	1	LIG1	0.000	
3	 O17	6.471	-3.841	26.415	O.2	1	LIG1	0.000	
4	 C18	8.551	-4.380	25.237	C.2	1	LIG1	0.000	
5	 C19	6.537	-4.198	20.153	C.2	1	LIG1	0.000	
6	 C20	5.860	-4.254	27.618	C.2	1	LIG1	0.000	
7	 C21	7.637	-4.459	26.380	C.2	1	LIG1	0.000	
8	 C22	6.682	-5.137	28.289	C.2	1	LIG1	0.000	
9	 C23	7.857	-5.235	27.515	C.2	1	LIG1	0.000	
10	 N24	8.178	-4.008	23.909	N.pl3	1	LIG1	0.000	
11	 N25	6.692	-4.257	21.537	N.pl3	1	LIG1	0.000	
12	 C26	6.920	-2.973	19.373	C.3	1	LIG1	0.000	
13	 C27	7.475	-2.824	23.518	C.3	1	LIG1	0.000	
14	 C28	8.619	-4.783	22.844	C.3	1	LIG1	0.000	
15	 C29	6.275	-3.207	22.535	C.3	1	LIG1	0.000	
16	 C30	7.321	-5.372	22.083	C.3	1	LIG1	0.000	
@<TRIPOS>BOND
1 1 4 2
2 4 7 1
3 2 5 2
4 5 11 1
5 3 6 ar
6 3 7 ar
7 7 9 ar
8 6 8 ar
9 8 9 ar
10 4 10 1
11 10 14 1
12 11 15 1
13 11 16 1
14 5 12 1
15 10 13 1
16 14 16 1
17 13 15 1
@<TRIPOS>SUBSTRUCTURE
1	LIG1	1	GROUP	1 C	LIG
