# created with PyMOL 3.1.3.1
@<TRIPOS>MOLECULE
predicted
40 45 1                 
SMALL
USER_CHARGES
@<TRIPOS>ATOM
1	CL30	13.420	-3.317	22.519	Cl	1	LIG1	0.000	
2	 O27	10.336	2.305	24.281	O.2	1	LIG1	0.000	
3	 O28	5.621	2.146	23.835	O.2	1	LIG1	0.000	
4	 O29	8.672	0.418	21.369	O.2	1	LIG1	0.000	
5	 N31	7.739	-8.216	24.626	N.2	1	LIG1	0.000	
6	 N32	9.022	-5.920	25.247	N.2	1	LIG1	0.000	
7	 N33	6.361	-0.855	17.775	N.2	1	LIG1	0.000	
8	 C34	9.887	1.152	24.169	C.2	1	LIG1	0.000	
9	 C35	6.749	2.518	23.805	C.2	1	LIG1	0.000	
10	 C36	8.256	-0.633	21.820	C.2	1	LIG1	0.000	
11	 C37	8.898	-8.243	25.304	C.2	1	LIG1	0.000	
12	 C38	9.522	-7.057	25.651	C.2	1	LIG1	0.000	
13	 C39	7.227	-7.043	24.240	C.2	1	LIG1	0.000	
14	 C40	7.024	-1.284	18.850	C.2	1	LIG1	0.000	
15	 C41	7.859	-5.851	24.563	C.2	1	LIG1	0.000	
16	 C42	12.934	-0.876	23.420	C.2	1	LIG1	0.000	
17	 C43	12.123	0.170	23.785	C.2	1	LIG1	0.000	
18	 C44	10.988	-2.193	22.841	C.2	1	LIG1	0.000	
19	 C45	2.993	1.101	20.612	C.2	1	LIG1	0.000	
20	 C46	3.651	0.650	21.748	C.2	1	LIG1	0.000	
21	 C47	12.378	-2.057	22.947	C.2	1	LIG1	0.000	
22	 C48	10.752	0.046	23.733	C.2	1	LIG1	0.000	
23	 C49	10.169	-1.161	23.294	C.2	1	LIG1	0.000	
24	 C50	5.213	-0.199	17.932	C.2	1	LIG1	0.000	
25	 C51	3.511	0.822	19.340	C.2	1	LIG1	0.000	
26	 C52	4.808	-0.060	21.625	C.2	1	LIG1	0.000	
27	 C53	6.561	-1.038	20.152	C.2	1	LIG1	0.000	
28	 C54	4.675	0.104	19.200	C.2	1	LIG1	0.000	
29	 C55	5.343	-0.324	20.353	C.2	1	LIG1	0.000	
30	 N56	7.172	3.330	22.828	N.pl3	1	LIG1	0.000	
31	 N57	7.339	-4.685	24.166	N.pl3	1	LIG1	0.000	
32	 N58	7.293	-1.421	21.250	N.pl3	1	LIG1	0.000	
33	 N59	8.528	0.928	24.352	N.pl3	1	LIG1	0.000	
34	 C60	6.298	3.886	21.859	C.3	1	LIG1	0.000	
35	 C61	7.717	2.021	24.801	C.3	1	LIG1	0.000	
36	 C62	7.979	-3.368	24.270	C.3	1	LIG1	0.000	
37	 C63	7.128	-2.655	21.942	C.3	1	LIG1	0.000	
38	 C64	7.975	-0.426	24.295	C.3	1	LIG1	0.000	
39	 C65	8.141	-2.652	23.040	C.3	1	LIG1	0.000	
40	 C66	8.670	-1.251	23.144	C.3	1	LIG1	0.000	
@<TRIPOS>BOND
1 5 11 ar
2 7 24 ar
3 2 8 2
4 3 9 2
5 9 35 1
6 4 10 2
7 10 32 1
8 11 12 ar
9 6 12 ar
10 5 13 ar
11 7 14 ar
12 6 15 ar
13 13 15 ar
14 16 17 ar
15 17 22 ar
16 18 21 ar
17 19 20 ar
18 20 26 ar
19 1 21 1
20 16 21 ar
21 8 22 1
22 18 23 ar
23 22 23 ar
24 24 28 ar
25 19 25 ar
26 26 29 ar
27 14 27 ar
28 27 29 ar
29 25 28 ar
30 28 29 ar
31 9 30 1
32 15 31 1
33 27 32 1
34 32 37 1
35 8 33 1
36 33 38 1
37 30 34 1
38 33 35 1
39 31 36 1
40 37 39 1
41 38 40 1
42 36 39 1
43 10 40 1
44 23 40 1
45 39 40 1
@<TRIPOS>SUBSTRUCTURE
1	LIG1	1	GROUP	1 C	LIG
