# created with PyMOL 3.1.3.1
@<TRIPOS>MOLECULE
predicted
20 21 1                 
SMALL
USER_CHARGES
@<TRIPOS>ATOM
1	 O21	5.961	-5.118	19.753	O.2	1	LIG1	0.000	
2	 O22	8.624	-2.346	25.941	O.2	1	LIG1	0.000	
3	 O23	9.149	-4.690	25.837	O.2	1	LIG1	0.000	
4	 C24	6.555	-4.149	20.219	C.2	1	LIG1	0.000	
5	 C25	4.768	-3.011	27.613	C.2	1	LIG1	0.000	
6	 C26	5.561	-5.113	28.336	C.2	1	LIG1	0.000	
7	 C27	5.847	-2.895	26.789	C.2	1	LIG1	0.000	
8	 C28	4.619	-4.136	28.392	C.2	1	LIG1	0.000	
9	 C29	6.648	-4.989	27.520	C.2	1	LIG1	0.000	
10	 C30	6.809	-3.888	26.746	C.2	1	LIG1	0.000	
11	 N31	6.647	-3.989	21.560	N.pl3	1	LIG1	0.000	
12	 N32	7.548	-3.828	24.161	N.3	1	LIG1	0.000	
13	 C33	7.118	-3.118	19.293	C.3	1	LIG1	0.000	
14	 C34	3.456	-4.282	29.285	C.3	1	LIG1	0.000	
15	 C35	7.637	-6.115	27.492	C.3	1	LIG1	0.000	
16	 C36	7.106	-2.692	22.086	C.3	1	LIG1	0.000	
17	 C37	6.269	-5.038	22.513	C.3	1	LIG1	0.000	
18	 C38	7.871	-2.767	23.283	C.3	1	LIG1	0.000	
19	 C39	7.075	-5.102	23.738	C.3	1	LIG1	0.000	
20	 S40	8.111	-3.686	25.698	S.O2	1	LIG1	0.000	
@<TRIPOS>BOND
1 1 4 2
2 4 11 1
3 5 8 ar
4 6 9 ar
5 5 7 ar
6 6 8 ar
7 8 14 1
8 9 15 1
9 7 10 ar
10 9 10 ar
11 11 16 1
12 11 17 1
13 12 19 1
14 12 20 1
15 4 13 1
16 16 18 1
17 12 18 1
18 17 19 1
19 2 20 2
20 3 20 2
21 10 20 1
@<TRIPOS>SUBSTRUCTURE
1	LIG1	1	GROUP	1 C	LIG
