# created with PyMOL 3.1.3.1
@<TRIPOS>MOLECULE
predicted
27 30 1                 
SMALL
USER_CHARGES
@<TRIPOS>ATOM
1	CL20	13.835	-1.944	21.585	Cl	1	LIG1	0.000	
2	 O17	9.144	0.994	21.184	O.2	1	LIG1	0.000	
3	 O18	10.341	1.426	26.191	O.2	1	LIG1	0.000	
4	 O19	10.501	3.213	24.449	O.2	1	LIG1	0.000	
5	 N21	6.684	0.321	17.762	N.2	1	LIG1	0.000	
6	 C22	8.601	0.043	21.719	C.2	1	LIG1	0.000	
7	 C23	7.279	-0.151	18.840	C.2	1	LIG1	0.000	
8	 C24	13.390	0.138	23.132	C.2	1	LIG1	0.000	
9	 C25	11.480	-1.112	22.336	C.2	1	LIG1	0.000	
10	 C26	12.579	0.968	23.845	C.2	1	LIG1	0.000	
11	 C27	3.267	2.153	20.483	C.2	1	LIG1	0.000	
12	 C28	3.882	1.680	21.615	C.2	1	LIG1	0.000	
13	 C29	12.843	-0.908	22.393	C.2	1	LIG1	0.000	
14	 C30	10.626	-0.313	23.089	C.2	1	LIG1	0.000	
15	 C31	11.208	0.757	23.816	C.2	1	LIG1	0.000	
16	 C32	5.554	0.988	17.850	C.2	1	LIG1	0.000	
17	 C33	3.806	1.939	19.230	C.2	1	LIG1	0.000	
18	 C34	5.033	0.986	21.532	C.2	1	LIG1	0.000	
19	 C35	6.787	0.038	20.131	C.2	1	LIG1	0.000	
20	 C36	4.972	1.232	19.111	C.2	1	LIG1	0.000	
21	 C37	5.603	0.748	20.269	C.2	1	LIG1	0.000	
22	 N38	7.425	-0.454	21.274	N.pl3	1	LIG1	0.000	
23	 N39	8.711	1.541	24.306	N.3	1	LIG1	0.000	
24	 C40	8.916	-2.030	23.111	C.3	1	LIG1	0.000	
25	 C41	8.406	0.113	24.204	C.3	1	LIG1	0.000	
26	 C42	9.164	-0.537	23.015	C.3	1	LIG1	0.000	
27	 S43	10.239	1.830	24.770	S.O2	1	LIG1	0.000	
@<TRIPOS>BOND
1 5 16 ar
2 2 6 2
3 6 22 1
4 5 7 ar
5 8 13 ar
6 9 14 ar
7 8 10 ar
8 11 12 ar
9 12 18 ar
10 1 13 1
11 9 13 ar
12 10 15 ar
13 14 15 ar
14 16 20 ar
15 11 17 ar
16 18 21 ar
17 7 19 ar
18 19 21 ar
19 17 20 ar
20 20 21 ar
21 19 22 1
22 23 27 1
23 24 26 1
24 23 25 1
25 6 26 1
26 14 26 1
27 25 26 1
28 3 27 2
29 4 27 2
30 15 27 1
@<TRIPOS>SUBSTRUCTURE
1	LIG1	1	GROUP	1 C	LIG
