# created with PyMOL 3.1.3.1
@<TRIPOS>MOLECULE
predicted
37 42 1                 
SMALL
USER_CHARGES
@<TRIPOS>ATOM
1	 O27	11.267	2.011	24.481	O.2	1	LIG1	0.000	
2	 O28	6.493	1.931	24.656	O.2	1	LIG1	0.000	
3	 O29	9.084	0.404	21.627	O.2	1	LIG1	0.000	
4	 N32	6.613	-0.715	18.083	N.2	1	LIG1	0.000	
5	 C33	10.749	0.891	24.308	C.2	1	LIG1	0.000	
6	 C34	7.635	2.263	24.451	C.2	1	LIG1	0.000	
7	 C35	8.695	-0.664	22.053	C.2	1	LIG1	0.000	
8	 C36	7.308	-1.164	19.114	C.2	1	LIG1	0.000	
9	 C37	13.519	-1.138	22.945	C.2	1	LIG1	0.000	
10	 C38	12.838	-0.120	23.529	C.2	1	LIG1	0.000	
11	 C39	11.449	-2.341	22.536	C.2	1	LIG1	0.000	
12	 C40	3.374	1.229	21.042	C.2	1	LIG1	0.000	
13	 C41	4.057	0.768	22.145	C.2	1	LIG1	0.000	
14	 C42	12.843	-2.259	22.437	C.2	1	LIG1	0.000	
15	 C43	11.462	-0.200	23.653	C.2	1	LIG1	0.000	
16	 C44	10.762	-1.341	23.200	C.2	1	LIG1	0.000	
17	 C45	5.479	-0.044	18.277	C.2	1	LIG1	0.000	
18	 C46	3.837	0.960	19.763	C.2	1	LIG1	0.000	
19	 C47	5.201	0.053	21.982	C.2	1	LIG1	0.000	
20	 C48	6.897	-0.942	20.445	C.2	1	LIG1	0.000	
21	 C49	4.993	0.248	19.565	C.2	1	LIG1	0.000	
22	 C50	5.700	-0.210	20.698	C.2	1	LIG1	0.000	
23	 N51	8.029	3.008	23.412	N.pl3	1	LIG1	0.000	
24	 N52	7.679	-1.372	21.511	N.pl3	1	LIG1	0.000	
25	 N53	9.428	0.700	24.657	N.pl3	1	LIG1	0.000	
26	 C54	8.711	1.728	25.316	C.3	1	LIG1	0.000	
27	 C55	7.078	3.586	22.492	C.3	1	LIG1	0.000	
28	 C56	5.394	5.410	22.472	C.3	1	LIG1	0.000	
29	 C57	6.644	5.969	21.889	C.3	1	LIG1	0.000	
30	 C58	6.680	4.973	22.880	C.3	1	LIG1	0.000	
31	 C59	8.647	-3.598	24.303	C.3	1	LIG1	0.000	
32	 C60	7.524	-2.635	22.162	C.3	1	LIG1	0.000	
33	 C61	8.802	-0.624	24.566	C.3	1	LIG1	0.000	
34	 C62	8.641	-2.726	23.137	C.3	1	LIG1	0.000	
35	 C63	9.277	-1.364	23.274	C.3	1	LIG1	0.000	
36	 F30	13.541	-3.235	21.880	 F	1	LIG1	0.000	
37	 F31	7.164	5.342	24.076	 F	1	LIG1	0.000	
@<TRIPOS>BOND
1 4 17 ar
2 1 5 2
3 5 15 1
4 2 6 2
5 6 23 1
6 3 7 2
7 7 35 1
8 4 8 ar
9 9 14 ar
10 9 10 ar
11 11 16 ar
12 12 13 ar
13 13 19 ar
14 11 14 ar
15 14 36 1
16 10 15 ar
17 15 16 ar
18 17 21 ar
19 12 18 ar
20 19 22 ar
21 8 20 ar
22 20 22 ar
23 18 21 ar
24 21 22 ar
25 23 27 1
26 7 24 1
27 20 24 1
28 5 25 1
29 25 26 1
30 6 26 1
31 27 30 1
32 28 29 1
33 28 30 1
34 29 30 1
35 30 37 1
36 31 34 1
37 24 32 1
38 25 33 1
39 32 34 1
40 34 35 1
41 16 35 1
42 33 35 1
@<TRIPOS>SUBSTRUCTURE
1	LIG1	1	GROUP	1 C	LIG
