# created with PyMOL 3.1.3.1
@<TRIPOS>MOLECULE
predicted
26 28 1                 
SMALL
USER_CHARGES
@<TRIPOS>ATOM
1	 O18	6.213	-2.455	20.765	O.2	1	LIG1	0.000	
2	 O19	6.565	1.052	16.909	O.2	1	LIG1	0.000	
3	 O21	10.747	1.578	23.630	O.3	1	LIG1	0.000	
4	 O22	9.956	-0.962	23.312	O.3	1	LIG1	0.000	
5	 C23	6.595	-1.320	20.973	C.2	1	LIG1	0.000	
6	 C24	14.000	-0.105	23.166	C.2	1	LIG1	0.000	
7	 C25	13.580	-1.406	23.032	C.2	1	LIG1	0.000	
8	 C26	13.064	0.905	23.364	C.2	1	LIG1	0.000	
9	 C27	12.246	-1.710	23.056	C.2	1	LIG1	0.000	
10	 C28	3.429	1.423	22.284	C.2	1	LIG1	0.000	
11	 C29	2.957	2.354	21.411	C.2	1	LIG1	0.000	
12	 C30	11.731	0.610	23.419	C.2	1	LIG1	0.000	
13	 C31	11.318	-0.683	23.265	C.2	1	LIG1	0.000	
14	 C32	6.575	-0.060	18.916	C.2	1	LIG1	0.000	
15	 C33	4.440	0.594	21.930	C.2	1	LIG1	0.000	
16	 C34	6.061	-0.206	20.198	C.2	1	LIG1	0.000	
17	 C35	3.505	2.465	20.149	C.2	1	LIG1	0.000	
18	 C36	6.082	0.932	18.055	C.2	1	LIG1	0.000	
19	 C37	5.025	0.650	20.641	C.2	1	LIG1	0.000	
20	 C38	4.542	1.622	19.753	C.2	1	LIG1	0.000	
21	 N39	7.505	-1.081	21.943	N.pl3	1	LIG1	0.000	
22	 N40	5.066	1.731	18.494	N.2	1	LIG1	0.000	
23	 C41	11.093	2.905	23.443	C.3	1	LIG1	0.000	
24	 C42	9.524	-2.173	22.757	C.3	1	LIG1	0.000	
25	 C43	8.050	-2.180	22.773	C.3	1	LIG1	0.000	
26	 F20	4.805	-0.270	22.845	 F	1	LIG1	0.000	
@<TRIPOS>BOND
1 3 12 1
2 4 24 1
3 1 5 2
4 5 16 1
5 6 7 ar
6 7 9 ar
7 6 8 ar
8 9 13 ar
9 10 15 ar
10 10 11 ar
11 8 12 ar
12 12 13 ar
13 4 13 1
14 14 18 ar
15 15 19 ar
16 15 26 1
17 14 16 ar
18 16 19 ar
19 11 17 ar
20 2 18 2
21 18 22 ar
22 17 20 ar
23 19 20 ar
24 5 21 1
25 20 22 ar
26 3 23 1
27 24 25 1
28 21 25 1
@<TRIPOS>SUBSTRUCTURE
1	LIG1	1	GROUP	1 C	LIG
