# created with PyMOL 3.1.3.1
@<TRIPOS>MOLECULE
predicted
34 38 1                 
SMALL
USER_CHARGES
@<TRIPOS>ATOM
1	CL27	13.608	-3.267	22.132	Cl	1	LIG1	0.000	
2	 O24	10.953	2.329	24.586	O.2	1	LIG1	0.000	
3	 O25	6.201	2.138	24.385	O.2	1	LIG1	0.000	
4	 O26	8.942	0.635	21.678	O.2	1	LIG1	0.000	
5	 N28	6.560	-0.556	18.069	N.2	1	LIG1	0.000	
6	 O29	7.709	-4.383	24.474	O.3	1	LIG1	0.000	
7	 C30	10.432	1.201	24.429	C.2	1	LIG1	0.000	
8	 C31	7.293	2.596	24.343	C.2	1	LIG1	0.000	
9	 C32	8.544	-0.434	22.102	C.2	1	LIG1	0.000	
10	 C33	7.230	-0.998	19.116	C.2	1	LIG1	0.000	
11	 C34	13.297	-0.865	23.304	C.2	1	LIG1	0.000	
12	 C35	12.577	0.165	23.820	C.2	1	LIG1	0.000	
13	 C36	11.260	-2.079	22.787	C.2	1	LIG1	0.000	
14	 C37	3.176	1.241	20.996	C.2	1	LIG1	0.000	
15	 C38	3.851	0.783	22.096	C.2	1	LIG1	0.000	
16	 C39	12.646	-1.991	22.779	C.2	1	LIG1	0.000	
17	 C40	11.204	0.097	23.851	C.2	1	LIG1	0.000	
18	 C41	10.526	-1.067	23.384	C.2	1	LIG1	0.000	
19	 C42	5.393	0.088	18.242	C.2	1	LIG1	0.000	
20	 C43	3.675	1.016	19.723	C.2	1	LIG1	0.000	
21	 C44	5.025	0.125	21.941	C.2	1	LIG1	0.000	
22	 C45	6.805	-0.767	20.432	C.2	1	LIG1	0.000	
23	 C46	4.869	0.346	19.532	C.2	1	LIG1	0.000	
24	 C47	5.567	-0.104	20.664	C.2	1	LIG1	0.000	
25	 N48	7.655	3.471	23.405	N.pl3	1	LIG1	0.000	
26	 N49	7.557	-1.183	21.526	N.pl3	1	LIG1	0.000	
27	 N50	9.092	1.026	24.699	N.pl3	1	LIG1	0.000	
28	 C51	6.700	3.977	22.463	C.3	1	LIG1	0.000	
29	 C52	8.359	2.111	25.288	C.3	1	LIG1	0.000	
30	 C53	8.368	-3.244	24.471	C.3	1	LIG1	0.000	
31	 C54	7.390	-2.430	22.189	C.3	1	LIG1	0.000	
32	 C55	8.470	-0.304	24.608	C.3	1	LIG1	0.000	
33	 C56	8.455	-2.466	23.221	C.3	1	LIG1	0.000	
34	 C57	9.038	-1.091	23.371	C.3	1	LIG1	0.000	
@<TRIPOS>BOND
1 5 19 ar
2 2 7 2
3 3 8 2
4 8 29 1
5 4 9 2
6 9 26 1
7 5 10 ar
8 11 12 ar
9 12 17 ar
10 13 16 ar
11 14 15 ar
12 15 21 ar
13 1 16 1
14 11 16 ar
15 7 17 1
16 13 18 ar
17 17 18 ar
18 19 23 ar
19 14 20 ar
20 21 24 ar
21 10 22 ar
22 22 24 ar
23 20 23 ar
24 23 24 ar
25 8 25 1
26 22 26 1
27 26 31 1
28 7 27 1
29 27 32 1
30 25 28 1
31 27 29 1
32 6 30 1
33 31 33 1
34 32 34 1
35 30 33 1
36 9 34 1
37 18 34 1
38 33 34 1
@<TRIPOS>SUBSTRUCTURE
1	LIG1	1	GROUP	1 C	LIG
