# created with PyMOL 3.1.3.1
@<TRIPOS>MOLECULE
predicted
34 39 1                 
SMALL
USER_CHARGES
@<TRIPOS>ATOM
1	 O22	11.178	2.009	24.600	O.2	1	LIG1	0.000	
2	 O23	9.092	0.417	21.591	O.2	1	LIG1	0.000	
3	 N25	6.621	-0.628	18.061	N.2	1	LIG1	0.000	
4	 N26	8.075	2.701	22.995	N.2	1	LIG1	0.000	
5	 N27	6.766	3.263	24.520	N.2	1	LIG1	0.000	
6	 C28	10.659	0.901	24.374	C.2	1	LIG1	0.000	
7	 C29	8.686	-0.640	22.019	C.2	1	LIG1	0.000	
8	 C30	7.817	2.569	24.285	C.2	1	LIG1	0.000	
9	 C31	7.300	-1.089	19.087	C.2	1	LIG1	0.000	
10	 C32	13.510	-1.063	23.042	C.2	1	LIG1	0.000	
11	 C33	12.799	-0.068	23.640	C.2	1	LIG1	0.000	
12	 C34	11.464	-2.274	22.543	C.2	1	LIG1	0.000	
13	 C35	3.356	1.295	21.022	C.2	1	LIG1	0.000	
14	 C36	4.031	0.811	22.125	C.2	1	LIG1	0.000	
15	 C37	12.859	-2.168	22.493	C.2	1	LIG1	0.000	
16	 C38	11.409	-0.165	23.715	C.2	1	LIG1	0.000	
17	 C39	10.736	-1.301	23.224	C.2	1	LIG1	0.000	
18	 C40	5.482	0.049	18.260	C.2	1	LIG1	0.000	
19	 C41	3.825	1.041	19.741	C.2	1	LIG1	0.000	
20	 C42	5.181	0.099	21.952	C.2	1	LIG1	0.000	
21	 C43	6.890	-0.881	20.418	C.2	1	LIG1	0.000	
22	 C44	7.135	3.459	22.424	C.2	1	LIG1	0.000	
23	 C45	4.987	0.324	19.544	C.2	1	LIG1	0.000	
24	 C46	5.689	-0.154	20.668	C.2	1	LIG1	0.000	
25	 N47	7.661	-1.327	21.473	N.pl3	1	LIG1	0.000	
26	 N48	9.322	0.706	24.654	N.pl3	1	LIG1	0.000	
27	 N49	6.339	3.807	23.322	N.2	1	LIG1	0.000	
28	 C50	8.585	1.727	25.333	C.3	1	LIG1	0.000	
29	 C51	8.656	-3.582	24.255	C.3	1	LIG1	0.000	
30	 C52	7.510	-2.613	22.112	C.3	1	LIG1	0.000	
31	 C53	8.698	-0.618	24.507	C.3	1	LIG1	0.000	
32	 C54	8.648	-2.713	23.079	C.3	1	LIG1	0.000	
33	 C55	9.238	-1.341	23.243	C.3	1	LIG1	0.000	
34	 F24	13.584	-3.120	21.921	 F	1	LIG1	0.000	
@<TRIPOS>BOND
1 3 18 ar
2 4 22 ar
3 1 6 2
4 6 16 1
5 2 7 2
6 7 33 1
7 4 8 ar
8 5 8 ar
9 3 9 ar
10 10 15 ar
11 10 11 ar
12 12 17 ar
13 13 14 ar
14 14 20 ar
15 12 15 ar
16 15 34 1
17 11 16 ar
18 16 17 ar
19 18 23 ar
20 13 19 ar
21 20 24 ar
22 9 21 ar
23 21 24 ar
24 22 27 ar
25 19 23 ar
26 23 24 ar
27 7 25 1
28 21 25 1
29 6 26 1
30 26 28 1
31 5 27 ar
32 8 28 1
33 29 32 1
34 25 30 1
35 26 31 1
36 30 32 1
37 32 33 1
38 17 33 1
39 31 33 1
@<TRIPOS>SUBSTRUCTURE
1	LIG1	1	GROUP	1 C	LIG
