# created with PyMOL 3.1.3.1
@<TRIPOS>MOLECULE
predicted
22 25 1                 
SMALL
USER_CHARGES
@<TRIPOS>ATOM
1	 O17	8.736	0.129	21.050	O.2	1	LIG1	0.000	
2	 N18	6.242	-0.803	17.791	N.2	1	LIG1	0.000	
3	 S19	12.637	-3.601	24.127	S.2	1	LIG1	0.000	
4	 C20	8.510	-0.924	21.634	C.2	1	LIG1	0.000	
5	 C21	6.934	-1.358	18.787	C.2	1	LIG1	0.000	
6	 C22	13.611	-2.322	23.824	C.2	1	LIG1	0.000	
7	 C23	11.209	-2.796	23.795	C.2	1	LIG1	0.000	
8	 C24	12.851	-1.231	23.440	C.2	1	LIG1	0.000	
9	 C25	3.187	1.092	20.914	C.2	1	LIG1	0.000	
10	 C26	3.877	0.565	21.952	C.2	1	LIG1	0.000	
11	 C27	11.498	-1.491	23.404	C.2	1	LIG1	0.000	
12	 C28	5.164	-0.114	18.026	C.2	1	LIG1	0.000	
13	 C29	3.594	0.883	19.618	C.2	1	LIG1	0.000	
14	 C30	4.999	-0.175	21.734	C.2	1	LIG1	0.000	
15	 C31	6.562	-1.188	20.092	C.2	1	LIG1	0.000	
16	 C32	4.713	0.136	19.334	C.2	1	LIG1	0.000	
17	 C33	5.432	-0.412	20.415	C.2	1	LIG1	0.000	
18	 N34	9.213	-1.263	22.732	N.pl3	1	LIG1	0.000	
19	 C35	7.418	-1.815	21.161	C.3	1	LIG1	0.000	
20	 C36	10.383	-0.541	23.065	C.3	1	LIG1	0.000	
21	 C37	9.831	-3.364	23.729	C.3	1	LIG1	0.000	
22	 C38	8.803	-2.340	23.601	C.3	1	LIG1	0.000	
@<TRIPOS>BOND
1 1 4 2
2 2 12 ar
3 3 6 ar
4 4 18 1
5 4 19 1
6 2 5 ar
7 6 8 ar
8 3 7 ar
9 7 11 ar
10 8 11 ar
11 9 10 ar
12 10 14 ar
13 11 20 1
14 12 16 ar
15 9 13 ar
16 14 17 ar
17 5 15 ar
18 15 17 ar
19 13 16 ar
20 16 17 ar
21 18 20 1
22 18 22 1
23 15 19 1
24 7 21 1
25 21 22 1
@<TRIPOS>SUBSTRUCTURE
1	LIG1	1	GROUP	1 C	LIG
