# created with PyMOL 3.1.3.1
@<TRIPOS>MOLECULE
predicted
34 39 1                 
SMALL
USER_CHARGES
@<TRIPOS>ATOM
1	 O22	10.733	1.935	24.296	O.2	1	LIG1	0.000	
2	 O23	8.888	0.140	21.355	O.2	1	LIG1	0.000	
3	 N25	7.520	2.561	22.543	N.2	1	LIG1	0.000	
4	 N26	6.456	-0.883	17.860	N.2	1	LIG1	0.000	
5	 O27	5.623	3.486	22.972	O.2	1	LIG1	0.000	
6	 C28	10.240	0.812	24.141	C.2	1	LIG1	0.000	
7	 C29	8.446	-0.891	21.827	C.2	1	LIG1	0.000	
8	 C30	6.485	3.214	22.043	C.2	1	LIG1	0.000	
9	 C31	7.123	-1.330	18.907	C.2	1	LIG1	0.000	
10	 C32	7.340	2.417	23.823	C.2	1	LIG1	0.000	
11	 C33	6.103	3.048	24.125	C.2	1	LIG1	0.000	
12	 C34	13.191	-1.305	23.287	C.2	1	LIG1	0.000	
13	 C35	12.438	-0.233	23.687	C.2	1	LIG1	0.000	
14	 C36	11.190	-2.544	22.728	C.2	1	LIG1	0.000	
15	 C37	3.038	0.865	20.759	C.2	1	LIG1	0.000	
16	 C38	3.694	0.384	21.868	C.2	1	LIG1	0.000	
17	 C39	12.591	-2.454	22.814	C.2	1	LIG1	0.000	
18	 C40	11.052	-0.312	23.659	C.2	1	LIG1	0.000	
19	 C41	10.406	-1.484	23.214	C.2	1	LIG1	0.000	
20	 C42	5.293	-0.246	18.029	C.2	1	LIG1	0.000	
21	 C43	3.563	0.655	19.494	C.2	1	LIG1	0.000	
22	 C44	4.871	-0.289	21.716	C.2	1	LIG1	0.000	
23	 C45	6.656	-1.158	20.215	C.2	1	LIG1	0.000	
24	 C46	4.751	-0.012	19.312	C.2	1	LIG1	0.000	
25	 C47	5.431	-0.486	20.442	C.2	1	LIG1	0.000	
26	 N48	7.407	-1.583	21.299	N.pl3	1	LIG1	0.000	
27	 N49	8.867	0.631	24.350	N.pl3	1	LIG1	0.000	
28	 C50	8.066	1.688	24.891	C.3	1	LIG1	0.000	
29	 C51	8.087	-3.666	24.238	C.3	1	LIG1	0.000	
30	 C52	7.199	-2.817	22.004	C.3	1	LIG1	0.000	
31	 C53	8.271	-0.711	24.288	C.3	1	LIG1	0.000	
32	 C54	8.314	-2.894	23.013	C.3	1	LIG1	0.000	
33	 C55	8.900	-1.516	23.126	C.3	1	LIG1	0.000	
34	 F24	13.376	-3.469	22.437	 F	1	LIG1	0.000	
@<TRIPOS>BOND
1 4 20 ar
2 5 8 ar
3 1 6 2
4 6 18 1
5 2 7 2
6 7 33 1
7 3 8 ar
8 4 9 ar
9 3 10 ar
10 10 11 ar
11 5 11 ar
12 12 17 ar
13 12 13 ar
14 14 19 ar
15 15 16 ar
16 16 22 ar
17 14 17 ar
18 17 34 1
19 13 18 ar
20 18 19 ar
21 20 24 ar
22 15 21 ar
23 22 25 ar
24 9 23 ar
25 23 25 ar
26 21 24 ar
27 24 25 ar
28 7 26 1
29 23 26 1
30 6 27 1
31 27 28 1
32 10 28 1
33 29 32 1
34 26 30 1
35 27 31 1
36 30 32 1
37 32 33 1
38 19 33 1
39 31 33 1
@<TRIPOS>SUBSTRUCTURE
1	LIG1	1	GROUP	1 C	LIG
