# created with PyMOL 3.1.3.1
@<TRIPOS>MOLECULE
predicted
31 34 1                 
SMALL
USER_CHARGES
@<TRIPOS>ATOM
1	CL24	13.703	-1.940	21.592	Cl	1	LIG1	0.000	
2	 O21	9.073	1.268	21.353	O.2	1	LIG1	0.000	
3	 O22	3.387	3.198	25.191	O.2	1	LIG1	0.000	
4	 O23	5.408	2.912	23.985	O.2	1	LIG1	0.000	
5	 N25	6.627	0.209	17.907	N.2	1	LIG1	0.000	
6	 O26	10.646	1.750	24.915	O.3	1	LIG1	0.000	
7	 O27	8.705	-1.502	23.513	O.3	1	LIG1	0.000	
8	 C28	8.578	0.329	21.955	C.2	1	LIG1	0.000	
9	 C29	7.269	-0.176	19.033	C.2	1	LIG1	0.000	
10	 C30	13.385	0.119	23.268	C.2	1	LIG1	0.000	
11	 C31	12.667	0.993	24.036	C.2	1	LIG1	0.000	
12	 C32	11.385	-0.961	22.496	C.2	1	LIG1	0.000	
13	 C33	3.167	2.118	20.627	C.2	1	LIG1	0.000	
14	 C34	12.755	-0.868	22.498	C.2	1	LIG1	0.000	
15	 C35	11.303	0.913	24.042	C.2	1	LIG1	0.000	
16	 C36	3.823	1.767	21.775	C.2	1	LIG1	0.000	
17	 C37	10.613	-0.100	23.300	C.2	1	LIG1	0.000	
18	 C38	5.444	0.841	17.988	C.2	1	LIG1	0.000	
19	 C39	3.681	1.826	19.361	C.2	1	LIG1	0.000	
20	 C40	5.009	1.085	21.698	C.2	1	LIG1	0.000	
21	 C41	6.779	0.086	20.310	C.2	1	LIG1	0.000	
22	 C42	4.873	1.157	19.243	C.2	1	LIG1	0.000	
23	 C43	5.558	0.765	20.435	C.2	1	LIG1	0.000	
24	 N44	7.482	-0.309	21.498	N.pl3	1	LIG1	0.000	
25	 N45	3.238	2.061	22.980	N.pl3	1	LIG1	0.000	
26	 C46	9.213	-2.171	24.630	C.3	1	LIG1	0.000	
27	 C47	9.242	1.972	24.702	C.3	1	LIG1	0.000	
28	 C48	8.492	0.675	24.443	C.3	1	LIG1	0.000	
29	 C49	4.323	0.784	25.148	C.3	1	LIG1	0.000	
30	 C50	9.121	-0.156	23.289	C.3	1	LIG1	0.000	
31	 S51	4.144	2.339	24.329	S.O2	1	LIG1	0.000	
@<TRIPOS>BOND
1 5 18 ar
2 6 15 1
3 7 30 1
4 2 8 2
5 8 24 1
6 5 9 ar
7 10 14 ar
8 10 11 ar
9 12 17 ar
10 13 16 ar
11 1 14 1
12 12 14 ar
13 11 15 ar
14 15 17 ar
15 16 20 ar
16 16 25 1
17 18 22 ar
18 13 19 ar
19 20 23 ar
20 9 21 ar
21 21 23 ar
22 19 22 ar
23 22 23 ar
24 21 24 1
25 25 31 1
26 7 26 1
27 6 27 1
28 27 28 1
29 8 30 1
30 17 30 1
31 28 30 1
32 3 31 2
33 4 31 2
34 29 31 1
@<TRIPOS>SUBSTRUCTURE
1	LIG1	1	GROUP	1 C	LIG
