# created with PyMOL 3.1.3.1
@<TRIPOS>MOLECULE
predicted
24 26 1                 
SMALL
USER_CHARGES
@<TRIPOS>ATOM
1	 O17	9.645	1.436	20.579	O.2	1	LIG1	0.000	
2	 O18	6.023	-4.027	20.206	O.3	1	LIG1	0.000	
3	 O19	13.916	4.251	23.945	O.2	1	LIG1	0.000	
4	 N20	11.983	1.593	22.684	N.2	1	LIG1	0.000	
5	 C21	9.831	1.347	21.725	C.2	1	LIG1	0.000	
6	 C22	7.246	-3.445	20.125	C.3	1	LIG1	0.000	
7	 C23	9.265	5.510	22.734	C.2	1	LIG1	0.000	
8	 C24	10.304	6.235	23.268	C.2	1	LIG1	0.000	
9	 C25	6.420	-1.085	20.566	C.2	1	LIG1	0.000	
10	 C26	7.336	-2.144	20.801	C.2	1	LIG1	0.000	
11	 C27	10.851	2.189	22.398	C.2	1	LIG1	0.000	
12	 C28	9.418	4.175	22.451	C.2	1	LIG1	0.000	
13	 C29	11.513	5.630	23.519	C.2	1	LIG1	0.000	
14	 C30	6.960	0.060	21.161	C.2	1	LIG1	0.000	
15	 C31	8.431	-1.633	21.538	C.2	1	LIG1	0.000	
16	 C32	12.929	3.619	23.479	C.2	1	LIG1	0.000	
17	 C33	10.645	3.530	22.701	C.2	1	LIG1	0.000	
18	 C34	11.692	4.272	23.245	C.2	1	LIG1	0.000	
19	 N35	9.103	0.489	22.435	N.pl3	1	LIG1	0.000	
20	 N36	8.187	-0.320	21.769	N.2	1	LIG1	0.000	
21	 N37	13.034	2.296	23.191	N.2	1	LIG1	0.000	
22	 C38	7.633	-3.282	18.639	C.3	1	LIG1	0.000	
23	 C39	6.430	1.411	21.179	C.3	1	LIG1	0.000	
24	 C40	9.620	-2.303	22.115	C.3	1	LIG1	0.000	
@<TRIPOS>BOND
1 4 21 ar
2 1 5 2
3 5 11 1
4 2 6 1
5 6 10 1
6 7 12 ar
7 7 8 ar
8 9 14 ar
9 9 10 ar
10 10 15 ar
11 4 11 ar
12 11 17 ar
13 12 17 ar
14 8 13 ar
15 14 20 ar
16 14 23 1
17 15 24 1
18 3 16 2
19 16 18 ar
20 13 18 ar
21 17 18 ar
22 5 19 1
23 15 20 ar
24 19 20 1
25 16 21 ar
26 6 22 1
@<TRIPOS>SUBSTRUCTURE
1	LIG1	1	GROUP	1 C	LIG
