# created with PyMOL 3.1.3.1
@<TRIPOS>MOLECULE
predicted
21 23 1                 
SMALL
USER_CHARGES
@<TRIPOS>ATOM
1	CL14	13.973	-1.889	21.669	Cl	1	LIG1	0.000	
2	 O13	9.055	0.897	21.063	O.2	1	LIG1	0.000	
3	 N15	3.278	1.944	20.493	N.2	1	LIG1	0.000	
4	 N16	6.697	0.342	17.663	N.2	1	LIG1	0.000	
5	 C17	8.569	-0.061	21.571	C.2	1	LIG1	0.000	
6	 C18	3.844	1.428	21.554	C.2	1	LIG1	0.000	
7	 C19	7.301	-0.184	18.724	C.2	1	LIG1	0.000	
8	 C20	12.268	1.054	23.755	C.2	1	LIG1	0.000	
9	 C21	13.224	0.252	23.137	C.2	1	LIG1	0.000	
10	 C22	10.938	0.726	23.664	C.2	1	LIG1	0.000	
11	 C23	11.503	-1.210	22.316	C.2	1	LIG1	0.000	
12	 C24	12.822	-0.880	22.426	C.2	1	LIG1	0.000	
13	 C25	10.595	-0.416	22.938	C.2	1	LIG1	0.000	
14	 C26	3.817	1.838	19.292	C.2	1	LIG1	0.000	
15	 C27	5.569	0.986	17.821	C.2	1	LIG1	0.000	
16	 C28	5.015	0.754	21.463	C.2	1	LIG1	0.000	
17	 C29	6.813	-0.090	19.997	C.2	1	LIG1	0.000	
18	 C30	4.985	1.161	19.086	C.2	1	LIG1	0.000	
19	 C31	5.608	0.601	20.207	C.2	1	LIG1	0.000	
20	 N32	7.469	-0.668	21.100	N.pl3	1	LIG1	0.000	
21	 C33	9.138	-0.735	22.814	C.3	1	LIG1	0.000	
@<TRIPOS>BOND
1 2 5 2
2 3 6 ar
3 4 15 ar
4 5 20 1
5 5 21 1
6 6 16 ar
7 4 7 ar
8 8 9 ar
9 9 12 ar
10 8 10 ar
11 1 12 1
12 11 12 ar
13 10 13 ar
14 11 13 ar
15 3 14 ar
16 15 18 ar
17 16 19 ar
18 7 17 ar
19 17 19 ar
20 14 18 ar
21 18 19 ar
22 17 20 1
23 13 21 1
@<TRIPOS>SUBSTRUCTURE
1	LIG1	1	GROUP	1 C	LIG
