# created with PyMOL 3.1.3.1
@<TRIPOS>MOLECULE
predicted
23 26 1                 
SMALL
USER_CHARGES
@<TRIPOS>ATOM
1	CL17	-14.173	-2.593	-21.325	Cl	1	LIG1	0.000	
2	 O16	-9.502	0.921	-21.082	O.2	1	LIG1	0.000	
3	 N18	-6.933	0.091	-17.728	N.2	1	LIG1	0.000	
4	 C19	-9.075	-0.109	-21.592	C.2	1	LIG1	0.000	
5	 C20	-7.596	-0.414	-18.750	C.2	1	LIG1	0.000	
6	 C21	-12.970	0.400	-23.644	C.2	1	LIG1	0.000	
7	 C22	-13.768	-0.468	-22.942	C.2	1	LIG1	0.000	
8	 C23	-11.596	0.265	-23.596	C.2	1	LIG1	0.000	
9	 C24	-11.827	-1.612	-22.116	C.2	1	LIG1	0.000	
10	 C25	-3.740	1.997	-20.694	C.2	1	LIG1	0.000	
11	 C26	-4.395	1.495	-21.776	C.2	1	LIG1	0.000	
12	 C27	-13.189	-1.481	-22.194	C.2	1	LIG1	0.000	
13	 C28	-11.054	-0.764	-22.828	C.2	1	LIG1	0.000	
14	 C29	-5.836	0.785	-17.924	C.2	1	LIG1	0.000	
15	 C30	-4.205	1.790	-19.424	C.2	1	LIG1	0.000	
16	 C31	-5.518	0.766	-21.613	C.2	1	LIG1	0.000	
17	 C32	-7.202	-0.219	-20.065	C.2	1	LIG1	0.000	
18	 C33	-5.343	1.046	-19.213	C.2	1	LIG1	0.000	
19	 C34	-6.026	0.521	-20.317	C.2	1	LIG1	0.000	
20	 N35	-7.973	-0.732	-21.149	N.pl3	1	LIG1	0.000	
21	 C36	-7.713	-1.935	-21.867	C.3	1	LIG1	0.000	
22	 C37	-8.922	-2.186	-22.679	C.3	1	LIG1	0.000	
23	 C38	-9.567	-0.848	-22.790	C.3	1	LIG1	0.000	
@<TRIPOS>BOND
1 2 4 2
2 3 14 ar
3 4 20 1
4 4 23 1
5 3 5 ar
6 6 7 ar
7 7 12 ar
8 6 8 ar
9 10 11 ar
10 11 16 ar
11 1 12 1
12 9 12 ar
13 8 13 ar
14 9 13 ar
15 14 18 ar
16 10 15 ar
17 16 19 ar
18 5 17 ar
19 17 19 ar
20 15 18 ar
21 18 19 ar
22 17 20 1
23 20 21 1
24 21 22 1
25 13 23 1
26 22 23 1
@<TRIPOS>SUBSTRUCTURE
1	LIG1	1	GROUP	1 C	LIG
