# created with PyMOL 3.1.3.1
@<TRIPOS>MOLECULE
predicted
15 16 1                 
SMALL
USER_CHARGES
@<TRIPOS>ATOM
1	 O18	6.219	-4.056	19.348	O.3	1	LIG1	0.000	
2	 O19	6.234	-2.586	21.496	O.3	1	LIG1	0.000	
3	 C20	13.373	-0.414	22.792	C.2	1	LIG1	0.000	
4	 C21	12.628	0.298	23.736	C.2	1	LIG1	0.000	
5	 C22	12.843	-1.543	22.216	C.2	1	LIG1	0.000	
6	 C23	11.374	-0.144	24.087	C.2	1	LIG1	0.000	
7	 C24	11.581	-1.963	22.575	C.2	1	LIG1	0.000	
8	 C25	10.826	-1.283	23.511	C.2	1	LIG1	0.000	
9	 N26	8.447	-2.176	23.145	N.3	1	LIG1	0.000	
10	 C27	9.463	-1.755	23.962	C.3	1	LIG1	0.000	
11	 C28	6.038	-2.132	22.809	C.3	1	LIG1	0.000	
12	 C29	7.237	-1.417	23.344	C.3	1	LIG1	0.000	
13	 C30	7.466	-3.783	19.835	C.3	1	LIG1	0.000	
14	 C31	8.623	-2.588	21.790	C.3	1	LIG1	0.000	
15	 C32	7.418	-3.373	21.296	C.3	1	LIG1	0.000	
@<TRIPOS>BOND
1 1 13 1
2 3 5 ar
3 3 4 ar
4 5 7 ar
5 4 6 ar
6 6 8 ar
7 7 8 ar
8 9 10 1
9 9 12 1
10 8 10 1
11 2 11 1
12 11 12 1
13 13 15 1
14 9 14 1
15 2 15 1
16 14 15 1
@<TRIPOS>SUBSTRUCTURE
1	LIG1	1	GROUP	1 C	LIG
