# created with PyMOL 3.1.3.1
@<TRIPOS>MOLECULE
predicted
15 16 1                 
SMALL
USER_CHARGES
@<TRIPOS>ATOM
1	 O14	9.237	1.513	20.851	O.2	1	LIG1	0.000	
2	 N16	6.638	0.427	17.527	N.2	1	LIG1	0.000	
3	 C17	8.974	0.459	21.330	C.2	1	LIG1	0.000	
4	 C18	5.460	0.981	17.778	C.2	1	LIG1	0.000	
5	 C19	7.446	0.005	18.545	C.2	1	LIG1	0.000	
6	 C20	5.025	1.204	19.068	C.2	1	LIG1	0.000	
7	 C21	7.067	0.186	19.853	C.2	1	LIG1	0.000	
8	 C22	5.824	0.781	20.108	C.2	1	LIG1	0.000	
9	 N23	7.906	-0.295	20.895	N.pl3	1	LIG1	0.000	
10	 C24	5.357	1.038	21.515	C.3	1	LIG1	0.000	
11	 C25	12.161	-0.865	22.801	C.3	1	LIG1	0.000	
12	 C26	10.335	0.792	23.467	C.3	1	LIG1	0.000	
13	 C27	11.274	0.235	22.395	C.3	1	LIG1	0.000	
14	 C28	9.791	-0.187	22.448	C.3	1	LIG1	0.000	
15	 F15	13.239	-0.832	22.082	 F	1	LIG1	0.000	
@<TRIPOS>BOND
1 2 5 ar
2 1 3 2
3 3 14 1
4 2 4 ar
5 5 7 ar
6 4 6 ar
7 7 9 1
8 6 8 ar
9 7 8 ar
10 3 9 1
11 8 10 1
12 11 15 1
13 12 13 1
14 11 13 1
15 12 14 1
16 13 14 1
@<TRIPOS>SUBSTRUCTURE
1	LIG1	1	GROUP	1 C	LIG
