# created with PyMOL 3.1.3.1
@<TRIPOS>MOLECULE
predicted
21 23 1                 
SMALL
USER_CHARGES
@<TRIPOS>ATOM
1	CL14	13.900	-1.893	21.990	Cl	1	LIG1	0.000	
2	 O13	8.908	0.733	21.200	O.2	1	LIG1	0.000	
3	 N15	6.454	0.197	17.782	N.2	1	LIG1	0.000	
4	 N16	3.783	1.926	19.392	N.2	1	LIG1	0.000	
5	 C17	8.399	-0.210	21.707	C.2	1	LIG1	0.000	
6	 C18	3.287	2.155	20.617	C.2	1	LIG1	0.000	
7	 C19	7.072	-0.340	18.846	C.2	1	LIG1	0.000	
8	 C20	11.997	0.936	24.074	C.2	1	LIG1	0.000	
9	 C21	13.009	0.185	23.476	C.2	1	LIG1	0.000	
10	 C22	10.674	0.563	23.918	C.2	1	LIG1	0.000	
11	 C23	11.369	-1.311	22.534	C.2	1	LIG1	0.000	
12	 C24	3.847	1.637	21.724	C.2	1	LIG1	0.000	
13	 C25	12.680	-0.937	22.717	C.2	1	LIG1	0.000	
14	 C26	10.399	-0.562	23.137	C.2	1	LIG1	0.000	
15	 C27	5.383	0.918	17.949	C.2	1	LIG1	0.000	
16	 C28	4.945	0.870	21.610	C.2	1	LIG1	0.000	
17	 C29	6.629	-0.175	20.126	C.2	1	LIG1	0.000	
18	 C30	4.864	1.180	19.228	C.2	1	LIG1	0.000	
19	 C31	5.483	0.612	20.351	C.2	1	LIG1	0.000	
20	 N32	7.264	-0.768	21.238	N.pl3	1	LIG1	0.000	
21	 C33	8.952	-0.926	22.938	C.3	1	LIG1	0.000	
@<TRIPOS>BOND
1 2 5 2
2 3 15 ar
3 4 6 ar
4 5 20 1
5 5 21 1
6 6 12 ar
7 3 7 ar
8 8 9 ar
9 9 13 ar
10 8 10 ar
11 12 16 ar
12 1 13 1
13 11 13 ar
14 10 14 ar
15 11 14 ar
16 15 18 ar
17 16 19 ar
18 7 17 ar
19 17 19 ar
20 4 18 ar
21 18 19 ar
22 17 20 1
23 14 21 1
@<TRIPOS>SUBSTRUCTURE
1	LIG1	1	GROUP	1 C	LIG
