# created with PyMOL 3.1.3.1
@<TRIPOS>MOLECULE
predicted
24 27 1                 
SMALL
USER_CHARGES
@<TRIPOS>ATOM
1	CL16	-14.156	-2.169	-20.647	Cl	1	LIG1	0.000	
2	 O15	-9.584	0.465	-21.021	O.2	1	LIG1	0.000	
3	 N17	-3.935	2.181	-20.466	N.2	1	LIG1	0.000	
4	 N18	-7.113	0.223	-17.570	N.2	1	LIG1	0.000	
5	 O19	-10.735	-0.882	-25.211	O.3	1	LIG1	0.000	
6	 C20	-8.965	-0.454	-21.496	C.2	1	LIG1	0.000	
7	 C21	-4.469	1.588	-21.527	C.2	1	LIG1	0.000	
8	 C22	-7.664	-0.386	-18.611	C.2	1	LIG1	0.000	
9	 C23	-13.672	-1.654	-23.235	C.2	1	LIG1	0.000	
10	 C24	-12.874	-1.335	-24.307	C.2	1	LIG1	0.000	
11	 C25	-11.788	-1.663	-21.770	C.2	1	LIG1	0.000	
12	 C26	-13.133	-1.793	-21.970	C.2	1	LIG1	0.000	
13	 C27	-11.510	-1.215	-24.121	C.2	1	LIG1	0.000	
14	 C28	-10.935	-1.321	-22.820	C.2	1	LIG1	0.000	
15	 C29	-4.441	2.031	-19.247	C.2	1	LIG1	0.000	
16	 C30	-6.051	0.995	-17.736	C.2	1	LIG1	0.000	
17	 C31	-5.552	0.782	-21.407	C.2	1	LIG1	0.000	
18	 C32	-7.184	-0.250	-19.909	C.2	1	LIG1	0.000	
19	 C33	-5.514	1.215	-19.022	C.2	1	LIG1	0.000	
20	 C34	-6.095	0.576	-20.113	C.2	1	LIG1	0.000	
21	 N35	-7.814	-0.917	-21.008	N.pl3	1	LIG1	0.000	
22	 C36	-9.365	-1.233	-25.167	C.3	1	LIG1	0.000	
23	 C37	-8.765	-0.718	-23.939	C.3	1	LIG1	0.000	
24	 C38	-9.453	-1.242	-22.711	C.3	1	LIG1	0.000	
@<TRIPOS>BOND
1 2 6 2
2 3 7 ar
3 4 16 ar
4 5 13 1
5 6 21 1
6 6 24 1
7 7 17 ar
8 4 8 ar
9 9 12 ar
10 9 10 ar
11 11 14 ar
12 1 12 1
13 11 12 ar
14 10 13 ar
15 13 14 ar
16 3 15 ar
17 16 19 ar
18 17 20 ar
19 8 18 ar
20 18 20 ar
21 15 19 ar
22 19 20 ar
23 18 21 1
24 5 22 1
25 22 23 1
26 14 24 1
27 23 24 1
@<TRIPOS>SUBSTRUCTURE
1	LIG1	1	GROUP	1 C	LIG
