# created with PyMOL 3.1.3.1
@<TRIPOS>MOLECULE
predicted
27 30 1                 
SMALL
USER_CHARGES
@<TRIPOS>ATOM
1	CL24	13.797	-1.990	21.672	Cl	1	LIG1	0.000	
2	 O21	9.111	1.010	21.157	O.2	1	LIG1	0.000	
3	 O22	10.305	1.667	26.137	O.2	1	LIG1	0.000	
4	 O23	10.477	3.340	24.288	O.2	1	LIG1	0.000	
5	 N25	6.571	0.346	17.825	N.2	1	LIG1	0.000	
6	 C26	8.536	0.099	21.746	C.2	1	LIG1	0.000	
7	 C27	7.174	-0.101	18.916	C.2	1	LIG1	0.000	
8	 C28	5.455	1.045	17.910	C.2	1	LIG1	0.000	
9	 C29	13.335	0.162	23.154	C.2	1	LIG1	0.000	
10	 C30	11.416	-1.104	22.406	C.2	1	LIG1	0.000	
11	 C31	12.530	1.032	23.823	C.2	1	LIG1	0.000	
12	 C32	12.779	-0.908	22.448	C.2	1	LIG1	0.000	
13	 C33	6.682	0.133	20.198	C.2	1	LIG1	0.000	
14	 C34	4.882	1.340	19.162	C.2	1	LIG1	0.000	
15	 C35	5.501	0.889	20.327	C.2	1	LIG1	0.000	
16	 C36	10.564	-0.258	23.121	C.2	1	LIG1	0.000	
17	 C37	11.143	0.831	23.798	C.2	1	LIG1	0.000	
18	 N38	7.323	-0.354	21.344	N.pl3	1	LIG1	0.000	
19	 N39	8.663	1.649	24.265	N.3	1	LIG1	0.000	
20	 C40	3.732	2.078	19.273	C.2	1	LIG1	0.000	
21	 C41	4.947	1.188	21.590	C.2	1	LIG1	0.000	
22	 C42	3.192	2.361	20.515	C.2	1	LIG1	0.000	
23	 C43	3.806	1.908	21.666	C.2	1	LIG1	0.000	
24	 C44	8.832	-1.965	23.157	C.3	1	LIG1	0.000	
25	 C45	8.348	0.213	24.220	C.3	1	LIG1	0.000	
26	 C46	9.090	-0.471	23.038	C.3	1	LIG1	0.000	
27	 S47	10.190	1.969	24.709	S.O2	1	LIG1	0.000	
@<TRIPOS>BOND
1 5 8 ar
2 2 6 2
3 6 18 1
4 5 7 ar
5 8 14 ar
6 9 12 ar
7 10 16 ar
8 9 11 ar
9 1 12 1
10 10 12 ar
11 7 13 ar
12 13 15 ar
13 14 15 ar
14 14 20 ar
15 15 21 ar
16 11 17 ar
17 16 17 ar
18 13 18 1
19 19 27 1
20 21 23 ar
21 20 22 ar
22 22 23 ar
23 24 26 1
24 19 25 1
25 6 26 1
26 16 26 1
27 25 26 1
28 3 27 2
29 4 27 2
30 17 27 1
@<TRIPOS>SUBSTRUCTURE
1	LIG1	1	GROUP	1 C	LIG
