# created with PyMOL 3.1.3.1
@<TRIPOS>MOLECULE
predicted
21 23 1                 
SMALL
USER_CHARGES
@<TRIPOS>ATOM
1	CL14	13.823	-1.542	21.422	Cl	1	LIG1	0.000	
2	 O13	7.281	-1.149	24.115	O.2	1	LIG1	0.000	
3	 N15	4.320	0.895	22.381	N.2	1	LIG1	0.000	
4	 N16	6.592	0.354	17.991	N.2	1	LIG1	0.000	
5	 C17	7.803	-1.433	23.099	C.2	1	LIG1	0.000	
6	 C18	5.542	1.103	17.774	C.2	1	LIG1	0.000	
7	 C19	5.395	0.148	22.599	C.2	1	LIG1	0.000	
8	 C20	11.528	0.522	23.900	C.2	1	LIG1	0.000	
9	 C21	12.590	0.146	23.140	C.2	1	LIG1	0.000	
10	 C22	10.389	-0.238	23.910	C.2	1	LIG1	0.000	
11	 C23	11.375	-1.793	22.386	C.2	1	LIG1	0.000	
12	 C24	12.511	-1.025	22.374	C.2	1	LIG1	0.000	
13	 C25	10.329	-1.416	23.147	C.2	1	LIG1	0.000	
14	 C26	4.058	1.334	21.158	C.2	1	LIG1	0.000	
15	 C27	6.841	-0.094	19.200	C.2	1	LIG1	0.000	
16	 C28	4.653	1.488	18.781	C.2	1	LIG1	0.000	
17	 C29	6.262	-0.222	21.623	C.2	1	LIG1	0.000	
18	 C30	4.897	1.034	20.069	C.2	1	LIG1	0.000	
19	 C31	6.018	0.221	20.306	C.2	1	LIG1	0.000	
20	 N32	7.376	-1.033	21.862	N.pl3	1	LIG1	0.000	
21	 C33	9.059	-2.271	23.173	C.3	1	LIG1	0.000	
@<TRIPOS>BOND
1 2 5 2
2 3 14 ar
3 4 15 ar
4 5 20 1
5 5 21 1
6 4 6 ar
7 3 7 ar
8 8 9 ar
9 9 12 ar
10 8 10 ar
11 1 12 1
12 11 12 ar
13 10 13 ar
14 11 13 ar
15 14 18 ar
16 15 19 ar
17 6 16 ar
18 7 17 ar
19 17 19 ar
20 16 18 ar
21 18 19 ar
22 17 20 1
23 13 21 1
@<TRIPOS>SUBSTRUCTURE
1	LIG1	1	GROUP	1 C	LIG
