# created with PyMOL 3.1.3.1
@<TRIPOS>MOLECULE
predicted
23 25 1                 
SMALL
USER_CHARGES
@<TRIPOS>ATOM
1	CL19	12.616	3.848	23.161	Cl	1	LIG1	0.000	
2	 O18	8.916	1.372	21.027	O.2	1	LIG1	0.000	
3	 N20	6.580	0.328	17.706	N.2	1	LIG1	0.000	
4	 C21	8.484	0.489	21.661	C.2	1	LIG1	0.000	
5	 C22	7.232	-0.067	18.797	C.2	1	LIG1	0.000	
6	 C23	10.861	1.815	23.087	C.2	1	LIG1	0.000	
7	 C24	13.165	1.189	23.141	C.2	1	LIG1	0.000	
8	 C25	11.460	-0.530	23.067	C.2	1	LIG1	0.000	
9	 C26	3.145	2.080	20.456	C.2	1	LIG1	0.000	
10	 C27	3.788	1.672	21.575	C.2	1	LIG1	0.000	
11	 C28	12.194	2.177	23.135	C.2	1	LIG1	0.000	
12	 C29	10.526	0.470	23.074	C.2	1	LIG1	0.000	
13	 C30	12.778	-0.148	23.119	C.2	1	LIG1	0.000	
14	 C31	5.434	0.934	17.794	C.2	1	LIG1	0.000	
15	 C32	3.664	1.866	19.206	C.2	1	LIG1	0.000	
16	 C33	4.960	1.044	21.487	C.2	1	LIG1	0.000	
17	 C34	6.747	0.130	20.047	C.2	1	LIG1	0.000	
18	 C35	4.865	1.212	19.065	C.2	1	LIG1	0.000	
19	 C36	5.524	0.795	20.228	C.2	1	LIG1	0.000	
20	 N37	7.448	-0.280	21.222	N.pl3	1	LIG1	0.000	
21	 C38	9.057	0.077	23.016	C.3	1	LIG1	0.000	
22	 C39	13.723	-2.001	21.836	C.3	1	LIG1	0.000	
23	 C40	13.772	-1.249	23.118	C.3	1	LIG1	0.000	
@<TRIPOS>BOND
1 3 14 ar
2 2 4 2
3 4 20 1
4 3 5 ar
5 6 12 ar
6 7 11 ar
7 9 10 ar
8 10 16 ar
9 1 11 1
10 6 11 ar
11 8 12 ar
12 12 21 1
13 7 13 ar
14 8 13 ar
15 14 18 ar
16 9 15 ar
17 16 19 ar
18 5 17 ar
19 17 19 ar
20 15 18 ar
21 18 19 ar
22 17 20 1
23 4 21 1
24 22 23 1
25 13 23 1
@<TRIPOS>SUBSTRUCTURE
1	LIG1	1	GROUP	1 C	LIG
