# created with PyMOL 3.1.3.1
@<TRIPOS>MOLECULE
predicted
36 40 1                 
SMALL
USER_CHARGES
@<TRIPOS>ATOM
1	CL30	13.565	-3.094	22.200	Cl	1	LIG1	0.000	
2	 O28	5.947	-5.431	27.895	O.2	1	LIG1	0.000	
3	 O29	8.434	0.158	21.493	O.2	1	LIG1	0.000	
4	 N31	6.582	-0.773	17.891	N.2	1	LIG1	0.000	
5	 C32	6.453	-5.135	26.897	C.2	1	LIG1	0.000	
6	 C33	8.255	-0.962	21.987	C.2	1	LIG1	0.000	
7	 C34	4.626	-5.917	25.371	C.3	1	LIG1	0.000	
8	 C35	6.096	-5.860	25.590	C.3	1	LIG1	0.000	
9	 C36	7.118	-1.375	18.963	C.2	1	LIG1	0.000	
10	 C37	13.218	0.277	24.147	C.2	1	LIG1	0.000	
11	 C38	9.410	-4.865	23.890	C.2	1	LIG1	0.000	
12	 C39	13.738	-0.832	23.510	C.2	1	LIG1	0.000	
13	 C40	8.740	-5.065	25.033	C.2	1	LIG1	0.000	
14	 C41	11.857	0.426	24.237	C.2	1	LIG1	0.000	
15	 C42	11.564	-1.569	23.055	C.2	1	LIG1	0.000	
16	 C43	9.428	-3.632	23.272	C.2	1	LIG1	0.000	
17	 C44	3.157	1.106	20.581	C.2	1	LIG1	0.000	
18	 C45	3.693	0.507	21.710	C.2	1	LIG1	0.000	
19	 C46	12.917	-1.738	22.977	C.2	1	LIG1	0.000	
20	 C47	8.101	-3.974	25.610	C.2	1	LIG1	0.000	
21	 C48	8.137	-2.703	25.019	C.2	1	LIG1	0.000	
22	 C49	11.037	-0.502	23.686	C.2	1	LIG1	0.000	
23	 C50	8.770	-2.544	23.834	C.2	1	LIG1	0.000	
24	 C51	5.502	-0.067	17.989	C.2	1	LIG1	0.000	
25	 C52	3.750	0.930	19.352	C.2	1	LIG1	0.000	
26	 C53	4.828	-0.280	21.644	C.2	1	LIG1	0.000	
27	 C54	6.597	-1.255	20.224	C.2	1	LIG1	0.000	
28	 C55	4.879	0.133	19.236	C.2	1	LIG1	0.000	
29	 C56	5.437	-0.477	20.393	C.2	1	LIG1	0.000	
30	 N57	7.371	-4.160	26.775	N.pl3	1	LIG1	0.000	
31	 C58	7.298	-1.930	21.396	C.3	1	LIG1	0.000	
32	 C59	7.436	-1.589	25.699	C.3	1	LIG1	0.000	
33	 C60	7.433	-3.095	27.722	C.3	1	LIG1	0.000	
34	 C61	6.832	-1.819	26.953	C.3	1	LIG1	0.000	
35	 C62	9.593	-0.289	23.820	C.3	1	LIG1	0.000	
36	 N63	8.842	-1.284	23.183	N.pl3	1	LIG1	0.000	
@<TRIPOS>BOND
1 4 24 ar
2 2 5 2
3 5 30 1
4 3 6 2
5 6 31 1
6 7 8 1
7 5 8 1
8 4 9 ar
9 10 12 ar
10 11 16 ar
11 12 19 ar
12 11 13 ar
13 10 14 ar
14 16 23 ar
15 17 18 ar
16 18 26 ar
17 1 19 1
18 15 19 ar
19 13 20 ar
20 20 21 ar
21 21 23 ar
22 14 22 ar
23 15 22 ar
24 23 36 1
25 24 28 ar
26 17 25 ar
27 26 29 ar
28 9 27 ar
29 27 29 ar
30 25 28 ar
31 28 29 ar
32 20 30 1
33 30 33 1
34 27 31 1
35 21 32 1
36 33 34 1
37 32 34 1
38 22 35 1
39 6 36 1
40 35 36 1
@<TRIPOS>SUBSTRUCTURE
1	LIG1	1	GROUP	1 C	LIG
