# created with PyMOL 3.1.3.1
@<TRIPOS>MOLECULE
predicted
39 43 1                 
SMALL
USER_CHARGES
@<TRIPOS>ATOM
1	 O29	10.879	2.164	24.188	O.2	1	LIG1	0.000	
2	 O30	6.190	2.358	23.836	O.2	1	LIG1	0.000	
3	 O31	9.018	0.325	21.367	O.2	1	LIG1	0.000	
4	 O32	6.341	-4.833	24.662	O.2	1	LIG1	0.000	
5	 O33	7.986	-5.670	23.111	O.2	1	LIG1	0.000	
6	 N35	6.481	-0.880	17.884	N.2	1	LIG1	0.000	
7	 C36	10.386	1.031	24.103	C.2	1	LIG1	0.000	
8	 C37	7.350	2.583	23.798	C.2	1	LIG1	0.000	
9	 C38	8.583	-0.714	21.861	C.2	1	LIG1	0.000	
10	 C39	7.183	-1.299	18.940	C.2	1	LIG1	0.000	
11	 C40	13.301	-1.151	23.310	C.2	1	LIG1	0.000	
12	 C41	12.559	-0.058	23.672	C.2	1	LIG1	0.000	
13	 C42	11.329	-2.398	22.823	C.2	1	LIG1	0.000	
14	 C43	3.151	0.985	20.821	C.2	1	LIG1	0.000	
15	 C44	3.857	0.543	21.939	C.2	1	LIG1	0.000	
16	 C45	12.704	-2.313	22.880	C.2	1	LIG1	0.000	
17	 C46	11.194	-0.121	23.670	C.2	1	LIG1	0.000	
18	 C47	10.552	-1.313	23.266	C.2	1	LIG1	0.000	
19	 C48	5.317	-0.238	18.069	C.2	1	LIG1	0.000	
20	 C49	3.639	0.721	19.538	C.2	1	LIG1	0.000	
21	 C50	5.033	-0.142	21.797	C.2	1	LIG1	0.000	
22	 C51	6.757	-1.073	20.259	C.2	1	LIG1	0.000	
23	 C52	4.812	0.040	19.364	C.2	1	LIG1	0.000	
24	 C53	5.534	-0.390	20.512	C.2	1	LIG1	0.000	
25	 N54	7.856	3.331	22.817	N.pl3	1	LIG1	0.000	
26	 N55	7.564	-1.460	21.351	N.pl3	1	LIG1	0.000	
27	 N56	9.032	0.860	24.337	N.pl3	1	LIG1	0.000	
28	 N57	8.478	-5.952	25.581	N.3	1	LIG1	0.000	
29	 C58	7.034	4.010	21.862	C.3	1	LIG1	0.000	
30	 C59	9.909	-5.892	25.786	C.3	1	LIG1	0.000	
31	 C60	7.805	-6.991	26.086	C.3	1	LIG1	0.000	
32	 C61	8.244	1.976	24.799	C.3	1	LIG1	0.000	
33	 C62	7.407	-2.670	22.100	C.3	1	LIG1	0.000	
34	 C63	8.446	-0.473	24.339	C.3	1	LIG1	0.000	
35	 C64	8.521	-3.433	24.408	C.3	1	LIG1	0.000	
36	 C65	8.460	-2.702	23.125	C.3	1	LIG1	0.000	
37	 C66	9.041	-1.323	23.163	C.3	1	LIG1	0.000	
38	 S67	7.797	-5.010	24.416	S.O2	1	LIG1	0.000	
39	 F34	13.483	-3.333	22.535	 F	1	LIG1	0.000	
@<TRIPOS>BOND
1 6 19 ar
2 1 7 2
3 2 8 2
4 8 32 1
5 3 9 2
6 9 26 1
7 6 10 ar
8 11 12 ar
9 12 17 ar
10 13 16 ar
11 14 15 ar
12 15 21 ar
13 11 16 ar
14 16 39 1
15 7 17 1
16 13 18 ar
17 17 18 ar
18 19 23 ar
19 14 20 ar
20 21 24 ar
21 10 22 ar
22 22 24 ar
23 20 23 ar
24 23 24 ar
25 8 25 1
26 22 26 1
27 26 33 1
28 7 27 1
29 27 34 1
30 28 30 1
31 28 31 1
32 25 29 1
33 27 32 1
34 33 36 1
35 34 37 1
36 35 38 1
37 35 36 1
38 9 37 1
39 18 37 1
40 36 37 1
41 4 38 2
42 5 38 2
43 28 38 1
@<TRIPOS>SUBSTRUCTURE
1	LIG1	1	GROUP	1 C	LIG
