# created with PyMOL 3.1.3.1
@<TRIPOS>MOLECULE
predicted
34 39 1                 
SMALL
USER_CHARGES
@<TRIPOS>ATOM
1	CL31	13.692	-3.402	22.279	Cl	1	LIG1	0.000	
2	 O29	10.648	2.195	24.289	O.2	1	LIG1	0.000	
3	 O30	8.865	0.288	21.385	O.2	1	LIG1	0.000	
4	 N32	6.445	-0.907	17.912	N.2	1	LIG1	0.000	
5	 C33	10.206	1.051	24.151	C.2	1	LIG1	0.000	
6	 C34	8.459	-0.757	21.877	C.2	1	LIG1	0.000	
7	 C35	7.124	-1.326	18.968	C.2	1	LIG1	0.000	
8	 C36	13.213	-0.950	23.243	C.2	1	LIG1	0.000	
9	 C37	12.432	0.085	23.662	C.2	1	LIG1	0.000	
10	 C38	11.252	-2.264	22.726	C.2	1	LIG1	0.000	
11	 C39	3.085	0.944	20.793	C.2	1	LIG1	0.000	
12	 C40	3.765	0.510	21.908	C.2	1	LIG1	0.000	
13	 C41	12.628	-2.109	22.771	C.2	1	LIG1	0.000	
14	 C42	11.059	-0.053	23.668	C.2	1	LIG1	0.000	
15	 C43	10.452	-1.257	23.246	C.2	1	LIG1	0.000	
16	 C44	5.294	-0.268	18.083	C.2	1	LIG1	0.000	
17	 C45	3.588	0.689	19.528	C.2	1	LIG1	0.000	
18	 C46	4.926	-0.167	21.768	C.2	1	LIG1	0.000	
19	 C47	6.685	-1.112	20.282	C.2	1	LIG1	0.000	
20	 C48	4.770	0.009	19.356	C.2	1	LIG1	0.000	
21	 C49	5.466	-0.420	20.493	C.2	1	LIG1	0.000	
22	 N50	7.452	-1.498	21.365	N.pl3	1	LIG1	0.000	
23	 N51	8.849	0.831	24.341	N.pl3	1	LIG1	0.000	
24	 C52	7.987	1.885	24.750	C.3	1	LIG1	0.000	
25	 C53	5.908	5.346	22.718	C.3	1	LIG1	0.000	
26	 C54	8.192	-3.482	24.335	C.3	1	LIG1	0.000	
27	 C55	7.287	-2.712	22.081	C.3	1	LIG1	0.000	
28	 C56	8.327	-0.530	24.352	C.3	1	LIG1	0.000	
29	 C57	7.321	2.374	23.455	C.3	1	LIG1	0.000	
30	 C58	6.951	4.797	23.817	C.3	1	LIG1	0.000	
31	 C59	5.869	3.893	22.286	C.3	1	LIG1	0.000	
32	 C60	8.422	-2.735	23.104	C.3	1	LIG1	0.000	
33	 C61	8.951	-1.339	23.184	C.3	1	LIG1	0.000	
34	 N62	6.672	3.536	23.485	N.3	1	LIG1	0.000	
@<TRIPOS>BOND
1 4 16 ar
2 2 5 2
3 5 14 1
4 3 6 2
5 6 33 1
6 4 7 ar
7 8 13 ar
8 8 9 ar
9 10 15 ar
10 11 12 ar
11 12 18 ar
12 1 13 1
13 10 13 ar
14 9 14 ar
15 14 15 ar
16 16 20 ar
17 11 17 ar
18 18 21 ar
19 7 19 ar
20 19 21 ar
21 17 20 ar
22 20 21 ar
23 6 22 1
24 19 22 1
25 5 23 1
26 23 24 1
27 24 29 1
28 25 31 1
29 26 32 1
30 22 27 1
31 23 28 1
32 29 34 1
33 25 30 1
34 27 32 1
35 32 33 1
36 15 33 1
37 28 33 1
38 30 34 1
39 31 34 1
@<TRIPOS>SUBSTRUCTURE
1	LIG1	1	GROUP	1 C	LIG
