# created with PyMOL 3.1.3.1
@<TRIPOS>MOLECULE
predicted
30 33 1                 
SMALL
USER_CHARGES
@<TRIPOS>ATOM
1	CL25	13.464	-0.483	21.581	Cl	1	LIG1	0.000	
2	 O22	8.575	1.152	21.351	O.2	1	LIG1	0.000	
3	 O23	5.439	-2.360	24.404	O.2	1	LIG1	0.000	
4	 O24	7.082	-4.038	24.934	O.2	1	LIG1	0.000	
5	 N26	6.351	0.962	17.521	N.2	1	LIG1	0.000	
6	 C27	7.997	0.112	21.607	C.2	1	LIG1	0.000	
7	 C28	6.879	0.346	18.571	C.2	1	LIG1	0.000	
8	 C29	12.450	-1.108	23.948	C.2	1	LIG1	0.000	
9	 C30	11.410	-1.359	24.826	C.2	1	LIG1	0.000	
10	 C31	10.875	-0.657	22.253	C.2	1	LIG1	0.000	
11	 C32	2.838	2.541	20.335	C.2	1	LIG1	0.000	
12	 C33	3.390	1.906	21.424	C.2	1	LIG1	0.000	
13	 C34	12.165	-0.752	22.670	C.2	1	LIG1	0.000	
14	 C35	10.073	-1.241	24.414	C.2	1	LIG1	0.000	
15	 C36	9.797	-0.856	23.114	C.2	1	LIG1	0.000	
16	 C37	5.221	1.638	17.653	C.2	1	LIG1	0.000	
17	 C38	3.433	2.481	19.088	C.2	1	LIG1	0.000	
18	 C39	4.537	1.189	21.312	C.2	1	LIG1	0.000	
19	 C40	6.347	0.377	19.842	C.2	1	LIG1	0.000	
20	 C41	4.586	1.749	18.913	C.2	1	LIG1	0.000	
21	 C42	5.150	1.094	20.032	C.2	1	LIG1	0.000	
22	 N43	6.922	-0.345	20.925	N.pl3	1	LIG1	0.000	
23	 N44	6.113	-2.552	26.705	N.3	1	LIG1	0.000	
24	 N45	7.725	-1.613	24.813	N.3	1	LIG1	0.000	
25	 C46	6.598	-3.449	27.661	C.3	1	LIG1	0.000	
26	 C47	5.504	-1.288	27.057	C.3	1	LIG1	0.000	
27	 C48	8.991	-1.476	25.418	C.3	1	LIG1	0.000	
28	 C49	7.488	-0.653	23.851	C.3	1	LIG1	0.000	
29	 C50	8.403	-0.809	22.684	C.3	1	LIG1	0.000	
30	 S51	6.598	-2.689	25.155	S.O2	1	LIG1	0.000	
@<TRIPOS>BOND
1 5 16 ar
2 2 6 2
3 6 22 1
4 5 7 ar
5 8 13 ar
6 8 9 ar
7 10 15 ar
8 11 12 ar
9 12 18 ar
10 1 13 1
11 10 13 ar
12 9 14 ar
13 14 15 ar
14 15 29 1
15 16 20 ar
16 11 17 ar
17 18 21 ar
18 7 19 ar
19 19 21 ar
20 17 20 ar
21 20 21 ar
22 19 22 1
23 23 26 1
24 23 30 1
25 24 27 1
26 24 28 1
27 23 25 1
28 14 27 1
29 6 29 1
30 28 29 1
31 3 30 2
32 4 30 2
33 24 30 1
@<TRIPOS>SUBSTRUCTURE
1	LIG1	1	GROUP	1 C	LIG
