# created with PyMOL 3.1.3.1
@<TRIPOS>MOLECULE
predicted
40 45 1                 
SMALL
USER_CHARGES
@<TRIPOS>ATOM
1	CL30	13.578	-3.262	21.967	Cl	1	LIG1	0.000	
2	 O27	11.024	2.298	24.506	O.2	1	LIG1	0.000	
3	 O28	6.159	2.181	24.536	O.2	1	LIG1	0.000	
4	 O29	8.935	0.593	21.539	O.2	1	LIG1	0.000	
5	 N31	7.578	-6.074	27.894	N.2	1	LIG1	0.000	
6	 N32	9.164	-5.777	25.692	N.2	1	LIG1	0.000	
7	 N33	6.583	-0.691	17.973	N.2	1	LIG1	0.000	
8	 C34	10.492	1.177	24.330	C.2	1	LIG1	0.000	
9	 C35	7.271	2.495	24.266	C.2	1	LIG1	0.000	
10	 C36	8.534	-0.454	21.996	C.2	1	LIG1	0.000	
11	 C37	8.647	-6.863	27.716	C.2	1	LIG1	0.000	
12	 C38	9.460	-6.678	26.589	C.2	1	LIG1	0.000	
13	 C39	7.292	-5.117	27.003	C.2	1	LIG1	0.000	
14	 C40	7.256	-1.107	19.039	C.2	1	LIG1	0.000	
15	 C41	8.131	-4.927	25.888	C.2	1	LIG1	0.000	
16	 C42	13.345	-0.891	23.119	C.2	1	LIG1	0.000	
17	 C43	12.630	0.137	23.666	C.2	1	LIG1	0.000	
18	 C44	11.276	-2.084	22.640	C.2	1	LIG1	0.000	
19	 C45	3.187	1.197	20.823	C.2	1	LIG1	0.000	
20	 C46	3.849	0.758	21.961	C.2	1	LIG1	0.000	
21	 C47	12.669	-2.012	22.603	C.2	1	LIG1	0.000	
22	 C48	11.245	0.077	23.733	C.2	1	LIG1	0.000	
23	 C49	10.565	-1.072	23.276	C.2	1	LIG1	0.000	
24	 C50	5.424	-0.047	18.131	C.2	1	LIG1	0.000	
25	 C51	3.706	0.931	19.549	C.2	1	LIG1	0.000	
26	 C52	5.023	0.080	21.833	C.2	1	LIG1	0.000	
27	 C53	6.796	-0.864	20.355	C.2	1	LIG1	0.000	
28	 C54	4.883	0.245	19.405	C.2	1	LIG1	0.000	
29	 C55	5.561	-0.176	20.562	C.2	1	LIG1	0.000	
30	 N56	7.570	3.124	23.117	N.pl3	1	LIG1	0.000	
31	 N57	7.840	-3.935	25.039	N.pl3	1	LIG1	0.000	
32	 N58	7.548	-1.238	21.444	N.pl3	1	LIG1	0.000	
33	 N59	9.147	1.020	24.589	N.pl3	1	LIG1	0.000	
34	 C60	6.549	3.542	22.218	C.3	1	LIG1	0.000	
35	 C61	8.410	2.116	25.159	C.3	1	LIG1	0.000	
36	 C62	8.801	-3.340	24.190	C.3	1	LIG1	0.000	
37	 C63	7.411	-2.483	22.129	C.3	1	LIG1	0.000	
38	 C64	8.526	-0.284	24.501	C.3	1	LIG1	0.000	
39	 C65	8.420	-2.458	23.203	C.3	1	LIG1	0.000	
40	 C66	9.056	-1.102	23.265	C.3	1	LIG1	0.000	
@<TRIPOS>BOND
1 5 11 ar
2 7 24 ar
3 2 8 2
4 3 9 2
5 9 35 1
6 4 10 2
7 10 32 1
8 11 12 ar
9 6 12 ar
10 5 13 ar
11 7 14 ar
12 6 15 ar
13 13 15 ar
14 16 17 ar
15 17 22 ar
16 18 21 ar
17 19 20 ar
18 20 26 ar
19 1 21 1
20 16 21 ar
21 8 22 1
22 18 23 ar
23 22 23 ar
24 24 28 ar
25 19 25 ar
26 26 29 ar
27 14 27 ar
28 27 29 ar
29 25 28 ar
30 28 29 ar
31 9 30 1
32 15 31 1
33 27 32 1
34 32 37 1
35 8 33 1
36 33 38 1
37 30 34 1
38 33 35 1
39 31 36 1
40 37 39 1
41 38 40 1
42 36 39 1
43 10 40 1
44 23 40 1
45 39 40 1
@<TRIPOS>SUBSTRUCTURE
1	LIG1	1	GROUP	1 C	LIG
