# created with PyMOL 3.1.3.1
@<TRIPOS>MOLECULE
predicted
36 40 1                 
SMALL
USER_CHARGES
@<TRIPOS>ATOM
1	 O29	8.835	0.273	21.303	O.2	1	LIG1	0.000	
2	 O30	6.143	-6.732	20.302	O.2	1	LIG1	0.000	
3	 N32	6.385	-0.676	17.854	N.2	1	LIG1	0.000	
4	 C33	8.263	-0.684	21.838	C.2	1	LIG1	0.000	
5	 C34	6.409	-5.787	20.963	C.2	1	LIG1	0.000	
6	 C35	6.898	-1.033	19.021	C.2	1	LIG1	0.000	
7	 C36	12.785	-2.756	21.989	C.2	1	LIG1	0.000	
8	 C37	13.501	-3.074	23.115	C.2	1	LIG1	0.000	
9	 C38	7.799	-2.560	24.700	C.2	1	LIG1	0.000	
10	 C39	8.027	-3.662	22.599	C.2	1	LIG1	0.000	
11	 C40	11.622	-2.042	22.095	C.2	1	LIG1	0.000	
12	 C41	11.911	-1.912	24.418	C.2	1	LIG1	0.000	
13	 C42	7.165	-3.687	25.231	C.2	1	LIG1	0.000	
14	 C43	2.801	1.493	20.122	C.2	1	LIG1	0.000	
15	 C44	3.323	1.134	21.336	C.2	1	LIG1	0.000	
16	 C45	13.068	-2.657	24.327	C.2	1	LIG1	0.000	
17	 C46	8.188	-2.544	23.388	C.2	1	LIG1	0.000	
18	 C47	7.342	-4.781	23.057	C.2	1	LIG1	0.000	
19	 C48	11.200	-1.579	23.304	C.2	1	LIG1	0.000	
20	 C49	6.963	-4.823	24.435	C.2	1	LIG1	0.000	
21	 C50	5.284	-0.012	17.823	C.2	1	LIG1	0.000	
22	 C51	3.435	1.123	18.954	C.2	1	LIG1	0.000	
23	 C52	4.488	0.422	21.426	C.2	1	LIG1	0.000	
24	 C53	6.335	-0.697	20.264	C.2	1	LIG1	0.000	
25	 C54	4.606	0.395	19.002	C.2	1	LIG1	0.000	
26	 C55	5.134	0.026	20.242	C.2	1	LIG1	0.000	
27	 N56	8.794	-1.354	22.850	N.pl3	1	LIG1	0.000	
28	 N57	7.015	-5.885	22.211	N.pl3	1	LIG1	0.000	
29	 C58	6.892	-1.146	21.517	C.3	1	LIG1	0.000	
30	 C59	9.939	-0.780	23.448	C.3	1	LIG1	0.000	
31	 C60	6.589	-4.279	18.962	C.3	1	LIG1	0.000	
32	 C61	6.070	-4.471	20.380	C.3	1	LIG1	0.000	
33	 C62	6.408	-6.054	24.979	C.3	1	LIG1	0.000	
34	 C63	7.187	-7.170	22.811	C.3	1	LIG1	0.000	
35	 C64	6.529	-7.246	24.146	C.3	1	LIG1	0.000	
36	BR31	14.003	-3.054	25.900	Br	1	LIG1	0.000	
@<TRIPOS>BOND
1 3 21 ar
2 1 4 2
3 4 29 1
4 2 5 2
5 5 28 1
6 3 6 ar
7 7 8 ar
8 8 16 ar
9 9 17 ar
10 10 18 ar
11 7 11 ar
12 9 13 ar
13 14 15 ar
14 15 23 ar
15 12 16 ar
16 16 36 1
17 10 17 ar
18 17 27 1
19 11 19 ar
20 12 19 ar
21 13 20 ar
22 18 20 ar
23 21 25 ar
24 14 22 ar
25 23 26 ar
26 6 24 ar
27 24 26 ar
28 22 25 ar
29 25 26 ar
30 4 27 1
31 27 30 1
32 18 28 1
33 28 34 1
34 24 29 1
35 19 30 1
36 31 32 1
37 5 32 1
38 20 33 1
39 34 35 1
40 33 35 1
@<TRIPOS>SUBSTRUCTURE
1	LIG1	1	GROUP	1 C	LIG
