LIG(A-302)
  PyMOL3.0          3D                             0

 43 47  0  0  0  0  0  0  0  0999 V2000
   10.6022   -0.1621   23.6277 H   0  0  0  0  0  0  0  0  0  0  0  0
    8.4894    0.5610   22.1455 N   0  0  0  0  0  0  0  0  0  0  0  0
   12.5085   -1.7368   23.9323 C   0  0  0  0  0  0  0  0  0  0  0  0
    7.5179    2.0650   20.7051 O   0  0  0  0  0  0  0  0  0  0  0  0
   12.8992   -1.2405   22.3078 Cl  0  0  0  0  0  0  0  0  0  0  0  0
   13.5469   -2.1985   24.7264 C   0  0  0  0  0  0  0  0  0  0  0  0
    6.8531   -0.1615   20.8631 N   0  0  0  0  0  0  0  0  0  0  0  0
    6.5262   -2.2868   21.7697 O   0  0  0  0  0  0  0  0  0  0  0  0
   13.2694   -2.6649   26.0008 C   0  0  0  0  0  0  0  0  0  0  0  0
    5.7372    0.1335   17.4389 N   0  0  0  0  0  0  0  0  0  0  0  0
   11.9745   -2.6656   26.4670 C   0  0  0  0  0  0  0  0  0  0  0  0
   10.9440   -2.1822   25.6735 C   0  0  0  0  0  0  0  0  0  0  0  0
   11.1885   -1.7023   24.3875 C   0  0  0  0  0  0  0  0  0  0  0  0
   10.0583   -1.1045   23.5627 C   0  0  0  0  0  0  0  0  0  0  0  0
    8.5729   -1.1997   23.9971 C   0  0  0  0  0  0  0  0  0  0  0  0
    8.3789   -0.8541   22.4980 C   0  0  0  0  0  0  0  0  0  0  0  0
    9.6375   -1.7074   22.1979 C   0  0  0  0  0  0  0  0  0  0  0  0
    7.6374    0.9466   21.1782 C   0  0  0  0  0  0  0  0  0  0  0  0
    7.1511   -1.2464   21.6903 C   0  0  0  0  0  0  0  0  0  0  0  0
    5.8210   -0.1616   19.8614 C   0  0  0  0  0  0  0  0  0  0  0  0
    6.2110   -0.4335   18.5508 C   0  0  0  0  0  0  0  0  0  0  0  0
    4.7806    1.0277   17.5804 C   0  0  0  0  0  0  0  0  0  0  0  0
    4.2212    1.3901   18.8255 C   0  0  0  0  0  0  0  0  0  0  0  0
    3.1612    2.3224   18.9520 C   0  0  0  0  0  0  0  0  0  0  0  0
    2.6340    2.6119   20.1767 C   0  0  0  0  0  0  0  0  0  0  0  0
    3.1278    2.0059   21.3213 C   0  0  0  0  0  0  0  0  0  0  0  0
    4.1551    1.1090   21.2472 C   0  0  0  0  0  0  0  0  0  0  0  0
    4.7405    0.7682   19.9999 C   0  0  0  0  0  0  0  0  0  0  0  0
    9.1378    1.1841   22.5829 H   0  0  0  0  0  0  0  0  0  0  0  0
   14.5611   -2.1946   24.3554 H   0  0  0  0  0  0  0  0  0  0  0  0
   14.0695   -3.0280   26.6288 H   0  0  0  0  0  0  0  0  0  0  0  0
   11.7594   -3.0444   27.4553 H   0  0  0  0  0  0  0  0  0  0  0  0
    9.9351   -2.1776   26.0587 H   0  0  0  0  0  0  0  0  0  0  0  0
    8.2235   -2.1933   24.3145 H   0  0  0  0  0  0  0  0  0  0  0  0
    8.2291   -0.4427   24.7173 H   0  0  0  0  0  0  0  0  0  0  0  0
   10.2353   -1.3996   21.3273 H   0  0  0  0  0  0  0  0  0  0  0  0
    9.4898   -2.7972   22.1745 H   0  0  0  0  0  0  0  0  0  0  0  0
    6.9781   -1.1826   18.4213 H   0  0  0  0  0  0  0  0  0  0  0  0
    4.4019    1.5121   16.6925 H   0  0  0  0  0  0  0  0  0  0  0  0
    2.7673    2.8079   18.0713 H   0  0  0  0  0  0  0  0  0  0  0  0
    1.8232    3.3210   20.2552 H   0  0  0  0  0  0  0  0  0  0  0  0
    2.6956    2.2452   22.2817 H   0  0  0  0  0  0  0  0  0  0  0  0
    4.5280    0.6520   22.1520 H   0  0  0  0  0  0  0  0  0  0  0  0
  1 14  1  0  0  0  0
  2 16  1  0  0  0  0
  2 18  1  0  0  0  0
  2 29  1  0  0  0  0
  3  5  1  0  0  0  0
  3  6  2  0  0  0  0
  3 13  1  0  0  0  0
  4 18  2  0  0  0  0
  6  9  1  0  0  0  0
  6 30  1  0  0  0  0
  7 18  1  0  0  0  0
  7 19  1  0  0  0  0
  7 20  1  0  0  0  0
  8 19  2  0  0  0  0
  9 11  2  0  0  0  0
  9 31  1  0  0  0  0
 10 21  2  0  0  0  0
 10 22  1  0  0  0  0
 11 12  1  0  0  0  0
 11 32  1  0  0  0  0
 12 13  2  0  0  0  0
 12 33  1  0  0  0  0
 13 14  1  0  0  0  0
 14 15  1  0  0  0  0
 14 17  1  0  0  0  0
 15 16  1  0  0  0  0
 15 34  1  0  0  0  0
 15 35  1  0  0  0  0
 16 17  1  0  0  0  0
 16 19  1  0  0  0  0
 17 36  1  0  0  0  0
 17 37  1  0  0  0  0
 20 21  1  0  0  0  0
 20 28  2  0  0  0  0
 21 38  1  0  0  0  0
 22 23  2  0  0  0  0
 22 39  1  0  0  0  0
 23 24  1  0  0  0  0
 23 28  1  0  0  0  0
 24 25  2  0  0  0  0
 24 40  1  0  0  0  0
 25 26  1  0  0  0  0
 25 41  1  0  0  0  0
 26 27  2  0  0  0  0
 26 42  1  0  0  0  0
 27 28  1  0  0  0  0
 27 43  1  0  0  0  0
M  END
$$$$
