predicted
     RDKit          3D

 30 33  0  0  0  0  0  0  0  0999 V2000
   14.0660   -0.8040   21.7540 Cl  0  0  0  0  0  0  0  0  0  0  0  0
    9.1550    0.3940   21.2800 O   0  0  0  0  0  0  0  0  0  0  0  0
    5.4050   -2.3050   23.9040 O   0  0  0  0  0  0  0  0  0  0  0  0
    6.7480    0.3440   17.4670 N   0  0  0  0  0  0  0  0  0  0  0  0
    8.5670   -0.6330   21.4660 C   0  0  0  0  0  0  0  0  0  0  0  0
    5.9670   -3.2800   24.3450 C   0  0  0  0  0  0  0  0  0  0  0  0
    7.3060   -0.2990   18.4620 C   0  0  0  0  0  3  0  0  0  0  0  0
   12.9940   -2.3090   23.6750 C   0  0  0  0  0  3  0  0  0  0  0  0
   11.9420   -2.8840   24.3560 C   0  0  0  0  0  3  0  0  0  0  0  0
   11.4590   -1.2920   22.1880 C   0  0  0  0  0  3  0  0  0  0  0  0
    3.4980    2.1100   20.4460 C   0  0  0  0  0  3  0  0  0  0  0  0
    4.0880    1.4620   21.4940 C   0  0  0  0  0  3  0  0  0  0  0  0
   12.7400   -1.5150   22.5980 C   0  0  0  0  0  0  0  0  0  0  0  0
   10.6220   -2.6380   23.9530 C   0  0  0  0  0  0  0  0  0  0  0  0
   10.3750   -1.8070   22.8700 C   0  0  0  0  0  0  0  0  0  0  0  0
    5.6650    1.0670   17.6640 C   0  0  0  0  0  3  0  0  0  0  0  0
    4.0000    2.0010   19.1750 C   0  0  0  0  0  3  0  0  0  0  0  0
    5.1850    0.6930   21.3150 C   0  0  0  0  0  3  0  0  0  0  0  0
    6.8660   -0.2310   19.7690 C   0  0  0  0  0  0  0  0  0  0  0  0
    5.1190    1.2170   18.9440 C   0  0  0  0  0  0  0  0  0  0  0  0
    5.7180    0.5490   20.0160 C   0  0  0  0  0  0  0  0  0  0  0  0
    7.4450   -1.0020   20.7950 N   0  0  0  0  0  2  0  0  0  0  0  0
    5.7060   -4.5320   23.9640 N   0  0  0  0  0  2  0  0  0  0  0  0
    4.6600   -4.8230   23.0690 C   0  0  0  0  0  1  0  0  0  0  0  0
    6.9270   -2.3530   26.4300 C   0  0  0  0  0  1  0  0  0  0  0  0
    9.5060   -3.2790   24.7030 C   0  0  0  0  0  2  0  0  0  0  0  0
    8.0740   -1.6490   23.5980 C   0  0  0  0  0  2  0  0  0  0  0  0
    8.9820   -1.6520   22.4270 C   0  0  0  0  0  3  0  0  0  0  0  0
    7.1770   -3.1380   25.2180 C   0  0  0  0  0  3  0  0  0  0  0  0
    8.2260   -2.6940   24.4100 N   0  0  0  0  0  3  0  0  0  0  0  0
  1 13  1  0
 13 10  2  0
 13  8  1  0
 10 15  1  0
  8  9  2  0
  9 14  1  0
 14 26  1  0
 14 15  2  0
 26 30  1  0
 30 29  1  0
 30 27  1  0
 29 25  1  0
 29  6  1  0
  6  3  2  0
  6 23  1  0
 23 24  1  0
 15 28  1  0
 28 27  1  0
 28  5  1  0
  5  2  2  0
  5 22  1  0
 22 19  1  0
 19 21  1  0
 19  7  2  0
 21 18  2  0
 21 20  1  0
 18 12  1  0
 12 11  2  0
 11 17  1  0
 17 20  2  0
 20 16  1  0
 16  4  2  0
  4  7  1  0
M  CHG  1  30   1
M  END
