predicted
     RDKit          3D

 24 26  0  0  0  0  0  0  0  0999 V2000
   13.9200   -1.9380   21.7100 Cl  0  0  0  0  0  0  0  0  0  0  0  0
    2.4080    2.2520   23.3990 O   0  0  0  0  0  0  0  0  0  0  0  0
    9.0760    1.0590   21.1360 O   0  0  0  0  0  0  0  0  0  0  0  0
    3.9390    0.9530   24.1130 O   0  0  0  0  0  0  0  0  0  0  0  0
    6.7090    0.3770   17.7480 N   0  0  0  0  0  0  0  0  0  0  0  0
    3.4160    1.5520   23.1610 C   0  0  0  0  0  0  0  0  0  0  0  0
    8.6160    0.1000   21.6870 C   0  0  0  0  0  0  0  0  0  0  0  0
    7.3420   -0.1370   18.8020 C   0  0  0  0  0  3  0  0  0  0  0  0
   12.4130    1.1120   23.7970 C   0  0  0  0  0  3  0  0  0  0  0  0
   13.2980    0.2510   23.1600 C   0  0  0  0  0  3  0  0  0  0  0  0
   11.0700    0.8370   23.7310 C   0  0  0  0  0  3  0  0  0  0  0  0
   11.5040   -1.1480   22.4130 C   0  0  0  0  0  3  0  0  0  0  0  0
    3.3360    1.9900   20.7200 C   0  0  0  0  0  3  0  0  0  0  0  0
   12.8330   -0.8700   22.4900 C   0  0  0  0  0  0  0  0  0  0  0  0
    3.9670    1.4510   21.7940 C   0  0  0  0  0  0  0  0  0  0  0  0
   10.6510   -0.2910   23.0280 C   0  0  0  0  0  0  0  0  0  0  0  0
    5.5740    1.0200   17.9330 C   0  0  0  0  0  3  0  0  0  0  0  0
    3.8480    1.8830   19.4190 C   0  0  0  0  0  3  0  0  0  0  0  0
    5.1350    0.7830   21.6000 C   0  0  0  0  0  3  0  0  0  0  0  0
    6.8760   -0.0380   20.0770 C   0  0  0  0  0  0  0  0  0  0  0  0
    5.0120    1.2030   19.2070 C   0  0  0  0  0  0  0  0  0  0  0  0
    5.6580    0.6550   20.3190 C   0  0  0  0  0  0  0  0  0  0  0  0
    7.5540   -0.5620   21.2100 N   0  0  0  0  0  2  0  0  0  0  0  0
    9.1970   -0.5360   22.9540 C   0  0  0  0  0  2  0  0  0  0  0  0
  1 14  1  0
 14 10  2  0
 14 12  1  0
 10  9  1  0
  9 11  2  0
 11 16  1  0
 12 16  2  0
 16 24  1  0
 24  7  1  0
  7  3  2  0
  7 23  1  0
 23 20  1  0
 20  8  2  0
 20 22  1  0
  8  5  1  0
  5 17  2  0
 17 21  1  0
 22 21  2  0
 22 19  1  0
 21 18  1  0
 18 13  2  0
 13 15  1  0
 19 15  2  0
 15  6  1  0
  6  2  2  0
  6  4  1  0
M  CHG  1   4  -1
M  END
