predicted
     RDKit          3D

 25 27  0  0  0  0  0  0  0  0999 V2000
   13.7910   -2.1330   21.8460 Cl  0  0  0  0  0  0  0  0  0  0  0  0
    3.7830    0.4890   24.1110 O   0  0  0  0  0  0  0  0  0  0  0  0
    9.0130    0.8590   21.0830 O   0  0  0  0  0  0  0  0  0  0  0  0
    6.5120    0.2000   17.7460 N   0  0  0  0  0  0  0  0  0  0  0  0
    3.2270    1.5380   23.9960 C   0  0  0  0  0  0  0  0  0  0  0  0
    8.4470   -0.0100   21.6840 C   0  0  0  0  0  0  0  0  0  0  0  0
    7.1090   -0.2810   18.8280 C   0  0  0  0  0  3  0  0  0  0  0  0
   12.3040    0.9060   23.8960 C   0  0  0  0  0  3  0  0  0  0  0  0
   13.1860    0.0330   23.2900 C   0  0  0  0  0  3  0  0  0  0  0  0
   10.9320    0.6900   23.8280 C   0  0  0  0  0  3  0  0  0  0  0  0
   11.3440   -1.2980   22.4920 C   0  0  0  0  0  3  0  0  0  0  0  0
    3.2020    2.3380   20.5010 C   0  0  0  0  0  3  0  0  0  0  0  0
   12.6980   -1.0600   22.5950 C   0  0  0  0  0  0  0  0  0  0  0  0
    3.7990    1.8830   21.6330 C   0  0  0  0  0  0  0  0  0  0  0  0
   10.4860   -0.4260   23.0960 C   0  0  0  0  0  0  0  0  0  0  0  0
    5.4070    0.9200   17.8550 C   0  0  0  0  0  3  0  0  0  0  0  0
    3.7260    2.0340   19.2520 C   0  0  0  0  0  3  0  0  0  0  0  0
    4.9300    1.1010   21.5310 C   0  0  0  0  0  3  0  0  0  0  0  0
    6.6500   -0.0290   20.1100 C   0  0  0  0  0  0  0  0  0  0  0  0
    4.8600    1.2600   19.1130 C   0  0  0  0  0  0  0  0  0  0  0  0
    5.4660    0.7740   20.2840 C   0  0  0  0  0  0  0  0  0  0  0  0
    3.2290    2.2540   22.8540 N   0  0  0  0  0  2  0  0  0  0  0  0
    7.2750   -0.5380   21.2790 N   0  0  0  0  0  2  0  0  0  0  0  0
    2.4720    2.1180   25.1900 C   0  0  0  0  0  1  0  0  0  0  0  0
    8.9820   -0.6330   22.9910 C   0  0  0  0  0  2  0  0  0  0  0  0
  1 13  1  0
 13  9  2  0
 13 11  1  0
  9  8  1  0
  8 10  2  0
 10 15  1  0
 11 15  2  0
 15 25  1  0
 25  6  1  0
  6  3  2  0
  6 23  1  0
 23 19  1  0
 19  7  2  0
 19 21  1  0
  7  4  1  0
  4 16  2  0
 16 20  1  0
 21 20  2  0
 21 18  1  0
 20 17  1  0
 17 12  2  0
 12 14  1  0
 18 14  2  0
 14 22  1  0
 22  5  1  0
  5  2  2  0
  5 24  1  0
M  END
