predicted
     RDKit          3D

 34 39  0  0  0  0  0  0  0  0999 V2000
   14.0800   -2.0520   21.7030 Cl  0  0  0  0  0  0  0  0  0  0  0  0
   11.0530    3.2760   24.3370 O   0  0  0  0  0  0  0  0  0  0  0  0
    6.2820    3.1440   24.1570 O   0  0  0  0  0  0  0  0  0  0  0  0
    9.1600    1.4960   21.4640 O   0  0  0  0  0  0  0  0  0  0  0  0
    6.8420    0.3410   17.9200 N   0  0  0  0  0  0  0  0  0  0  0  0
   10.6270    2.1130   24.1730 C   0  0  0  0  0  0  0  0  0  0  0  0
    7.4450    3.3120   24.0940 C   0  0  0  0  0  0  0  0  0  0  0  0
    8.8480    0.3880   21.8750 C   0  0  0  0  0  0  0  0  0  0  0  0
    7.5230   -0.1280   18.9260 C   0  0  0  0  0  3  0  0  0  0  0  0
   13.6490    0.3360   22.9140 C   0  0  0  0  0  3  0  0  0  0  0  0
   12.8580    1.3050   23.4610 C   0  0  0  0  0  3  0  0  0  0  0  0
   11.7070   -1.0320   22.4520 C   0  0  0  0  0  3  0  0  0  0  0  0
    3.5030    1.9280   20.9800 C   0  0  0  0  0  3  0  0  0  0  0  0
    4.1980    1.4220   22.0380 C   0  0  0  0  0  3  0  0  0  0  0  0
   13.0710   -0.8390   22.3890 C   0  0  0  0  0  0  0  0  0  0  0  0
   11.4860    1.0980   23.5360 C   0  0  0  0  0  0  0  0  0  0  0  0
   10.9080   -0.0950   23.0740 C   0  0  0  0  0  0  0  0  0  0  0  0
    5.6750    0.9660   18.1350 C   0  0  0  0  0  3  0  0  0  0  0  0
    3.9850    1.8000   19.6920 C   0  0  0  0  0  3  0  0  0  0  0  0
    5.3650    0.8010   21.8250 C   0  0  0  0  0  3  0  0  0  0  0  0
    7.1260    0.0350   20.2440 C   0  0  0  0  0  0  0  0  0  0  0  0
    5.1730    1.1510   19.4440 C   0  0  0  0  0  0  0  0  0  0  0  0
    5.8890    0.6600   20.5270 C   0  0  0  0  0  0  0  0  0  0  0  0
    7.9210    3.9900   23.0510 N   0  0  0  0  0  2  0  0  0  0  0  0
    7.9100   -0.3960   21.2970 N   0  0  0  0  0  0  0  0  0  0  0  0
    9.2990    1.7790   24.4980 N   0  0  0  0  0  0  0  0  0  0  0  0
    7.0590    4.5270   22.0510 C   0  0  0  0  0  1  0  0  0  0  0  0
    7.8760   -1.7010   21.8710 C   0  0  0  0  0  2  0  0  0  0  0  0
    8.5080    3.1580   26.4830 C   0  0  0  0  0  2  0  0  0  0  0  0
    7.6350    2.1830   26.3400 C   0  0  0  0  0  2  0  0  0  0  0  0
    8.4600    2.7990   25.1270 C   0  0  1  0  0  0  0  0  0  0  0  0
    8.8270    0.4010   24.3490 C   0  0  0  0  0  2  0  0  0  0  0  0
    8.9510   -1.6370   23.0110 C   0  0  0  0  0  2  0  0  0  0  0  0
    9.4250   -0.2510   23.1030 C   0  0  1  0  0  0  0  0  0  0  0  0
  2  6  2  0
  6 26  1  0
  6 16  1  0
 31 26  1  6
 26 32  1  0
 31 29  1  0
 31 30  1  0
 31  7  1  0
 29 30  1  0
  7  3  2  0
  7 24  1  0
 24 27  1  0
 16 11  2  0
 16 17  1  0
 11 10  1  0
 10 15  2  0
 15  1  1  0
 15 12  1  0
 12 17  2  0
 17 34  1  0
 34 32  1  1
 34  8  1  0
 34 33  1  0
  8  4  2  0
  8 25  1  0
 25 28  1  0
 25 21  1  0
 28 33  1  0
 21 23  1  0
 21  9  2  0
 23 20  2  0
 23 22  1  0
 20 14  1  0
 14 13  2  0
 13 19  1  0
 19 22  2  0
 22 18  1  0
 18  5  2  0
  5  9  1  0
M  END
