predicted
     RDKit          3D

 25 28  0  0  0  0  0  0  0  0999 V2000
  -14.1750   -2.6290  -21.1070 Cl  0  0  0  0  0  0  0  0  0  0  0  0
   -9.7570    0.9220  -21.0830 O   0  0  0  0  0  0  0  0  0  0  0  0
   -7.2520    0.1640  -17.6920 N   0  0  0  0  0  0  0  0  0  0  0  0
  -11.4630    1.3140  -24.4200 O   0  0  0  0  0  0  0  0  0  0  0  0
   -9.4390   -1.9180  -23.1970 O   0  0  0  0  0  1  0  0  0  0  0  0
   -9.2640   -0.0470  -21.6570 C   0  0  0  0  0  0  0  0  0  0  0  0
   -7.8920   -0.3190  -18.7530 C   0  0  0  0  0  3  0  0  0  0  0  0
  -14.0690   -0.4400  -22.7200 C   0  0  0  0  0  3  0  0  0  0  0  0
  -13.4180    0.4830  -23.4790 C   0  0  0  0  0  3  0  0  0  0  0  0
  -11.9950   -1.5060  -22.0980 C   0  0  0  0  0  3  0  0  0  0  0  0
   -3.9420    1.9870  -20.5530 C   0  0  0  0  0  3  0  0  0  0  0  0
   -4.5970    1.5160  -21.6580 C   0  0  0  0  0  3  0  0  0  0  0  0
  -13.3570   -1.4560  -22.0390 C   0  0  0  0  0  0  0  0  0  0  0  0
  -12.0610    0.4300  -23.5670 C   0  0  0  0  0  0  0  0  0  0  0  0
  -11.3290   -0.5940  -22.8870 C   0  0  0  0  0  0  0  0  0  0  0  0
   -6.1170    0.8300  -17.8240 C   0  0  0  0  0  3  0  0  0  0  0  0
   -4.4240    1.7810  -19.2790 C   0  0  0  0  0  3  0  0  0  0  0  0
   -5.7490    0.8300  -21.5380 C   0  0  0  0  0  3  0  0  0  0  0  0
   -7.4410   -0.1260  -20.0540 C   0  0  0  0  0  0  0  0  0  0  0  0
   -5.5820    1.0720  -19.1120 C   0  0  0  0  0  0  0  0  0  0  0  0
   -6.2560    0.5880  -20.2470 C   0  0  0  0  0  0  0  0  0  0  0  0
   -8.1500   -0.6080  -21.1960 N   0  0  0  0  0  2  0  0  0  0  0  0
  -10.0440    1.4640  -24.3820 C   0  0  0  0  0  2  0  0  0  0  0  0
   -9.3150    0.2160  -24.1300 C   0  0  0  0  0  2  0  0  0  0  0  0
   -9.8460   -0.6140  -22.9460 C   0  0  2  0  0  0  0  0  0  0  0  0
  2  6  2  0
  6 25  1  0
  6 22  1  0
 25 15  1  0
 25 24  1  0
 25  5  1  6
 15 10  2  0
 15 14  1  0
 10 13  1  0
 13  1  1  0
 13  8  2  0
  8  9  1  0
  9 14  2  0
 14  4  1  0
  4 23  1  0
 23 24  1  0
 22 19  1  0
 19 21  1  0
 19  7  2  0
 21 18  2  0
 21 20  1  0
 18 12  1  0
 12 11  2  0
 11 17  1  0
 17 20  2  0
 20 16  1  0
 16  3  2  0
  3  7  1  0
M  END
