predicted
     RDKit          3D

 21 23  0  0  0  0  0  0  0  0999 V2000
    8.6680    1.1580   21.4110 O   0  0  0  0  0  0  0  0  0  0  0  0
   11.5930    1.6010   24.0400 N   0  0  0  0  0  0  0  0  0  0  0  0
   10.3150    1.3340   24.0240 N   0  0  0  0  0  0  0  0  0  0  0  0
    6.5550    0.5870   17.2870 O   0  0  0  0  0  0  0  0  0  0  0  0
    8.1870    0.1820   21.9570 C   0  0  0  0  0  0  0  0  0  0  0  0
    5.3790    1.2200   17.4860 C   0  0  0  0  0  3  0  0  0  0  0  0
    6.9570    0.0220   18.4620 C   0  0  0  0  0  3  0  0  0  0  0  0
    4.9540    1.0720   18.8140 C   0  0  0  0  0  3  0  0  0  0  0  0
   13.8820   -0.7420   22.3340 C   0  0  0  0  0  3  0  0  0  0  0  0
   12.9250   -1.6170   21.8970 C   0  0  0  0  0  3  0  0  0  0  0  0
    5.8820    0.0820   19.4320 C   0  0  0  0  0  0  0  0  0  0  0  0
   13.5690    0.4020   23.0680 C   0  0  0  0  0  3  0  0  0  0  0  0
   11.6090   -1.3890   22.1950 C   0  0  0  0  0  3  0  0  0  0  0  0
   12.2480    0.6270   23.3850 C   0  0  0  0  0  0  0  0  0  0  0  0
   11.2810   -0.2790   22.9470 C   0  0  0  0  0  0  0  0  0  0  0  0
    7.0680   -0.4380   21.5320 N   0  0  0  0  0  0  0  0  0  0  0  0
   10.1190    0.1970   23.3830 N   0  0  0  0  0  0  0  0  0  0  0  0
    6.0770    0.3250   20.8400 C   0  0  0  0  0  2  0  0  0  0  0  0
    8.8170   -0.3740   23.1810 C   0  0  0  0  0  2  0  0  0  0  0  0
    7.3940   -2.8070   20.8560 C   0  0  0  0  0  1  0  0  0  0  0  0
    6.7710   -1.8550   21.8520 C   0  0  0  0  0  2  0  0  0  0  0  0
 11  8  1  0
 11  7  2  0
 11 18  1  0
 13 10  2  0
 13 15  1  0
  8  6  2  0
  6  4  1  0
 12 14  1  0
 12  9  2  0
  7  4  1  0
  5 19  1  0
  5 16  1  0
  5  1  2  0
 19 17  1  0
 14 15  2  0
 14  2  1  0
  9 10  1  0
 16 18  1  0
 16 21  1  0
 17  3  1  0
 17 15  1  0
  3  2  2  0
 20 21  1  0
M  END
