predicted
     RDKit          3D

 27 30  0  0  0  0  0  0  0  0999 V2000
   14.0490   -2.1270   21.5670 Cl  0  0  0  0  0  0  0  0  0  0  0  0
    5.6010   -2.5760   20.6320 O   0  0  0  0  0  0  0  0  0  0  0  0
    9.1130    1.3500   21.6240 O   0  0  0  0  0  0  0  0  0  0  0  0
    6.3930    1.0910   16.8670 O   0  0  0  0  0  0  0  0  0  0  0  0
    6.0490   -1.4730   20.8340 C   0  0  0  0  0  0  0  0  0  0  0  0
    8.6930    0.3280   22.0870 C   0  0  0  0  0  0  0  0  0  0  0  0
   12.5240    0.4710   24.1010 C   0  0  0  0  0  3  0  0  0  0  0  0
   13.4330   -0.2610   23.3720 C   0  0  0  0  0  3  0  0  0  0  0  0
   11.1760    0.3290   23.9010 C   0  0  0  0  0  3  0  0  0  0  0  0
   11.6260   -1.3630   22.2210 C   0  0  0  0  0  3  0  0  0  0  0  0
    2.8450    1.1560   21.9980 C   0  0  0  0  0  3  0  0  0  0  0  0
    2.4660    2.1610   21.1670 C   0  0  0  0  0  3  0  0  0  0  0  0
   12.9660   -1.1990   22.4400 C   0  0  0  0  0  0  0  0  0  0  0  0
   10.7560   -0.5870   22.9230 C   0  0  0  0  0  0  0  0  0  0  0  0
    6.2060   -0.1750   18.7750 C   0  0  0  0  0  3  0  0  0  0  0  0
    3.8410    0.3230   21.6310 C   0  0  0  0  0  3  0  0  0  0  0  0
    5.5880   -0.3690   19.9830 C   0  0  0  0  0  0  0  0  0  0  0  0
    3.1270    2.3640   19.9550 C   0  0  0  0  0  3  0  0  0  0  0  0
    5.8120    0.8960   17.9480 C   0  0  0  0  0  0  0  0  0  0  0  0
    4.5360    0.4800   20.4020 C   0  0  0  0  0  0  0  0  0  0  0  0
    4.1650    1.5250   19.5670 C   0  0  0  0  0  0  0  0  0  0  0  0
    9.4000   -0.7410   22.6770 N   0  0  0  0  0  0  0  0  0  0  0  0
    6.8350   -1.1400   21.9170 N   0  0  0  0  0  0  0  0  0  0  0  0
    4.7840    1.7010   18.3460 N   0  0  0  0  0  2  0  0  0  0  0  0
    7.2120    0.2260   22.1070 C   0  0  0  0  0  2  0  0  0  0  0  0
    8.8120   -2.0780   22.9110 C   0  0  0  0  0  2  0  0  0  0  0  0
    7.2890   -2.0880   22.8510 C   0  0  0  0  0  2  0  0  0  0  0  0
  4 19  2  0
 19 15  1  0
 19 24  1  0
 15 17  2  0
 24 21  1  0
 21 20  2  0
 21 18  1  0
 20 16  1  0
 20 17  1  0
 16 11  2  0
 11 12  1  0
 12 18  2  0
 17  5  1  0
  5  2  2  0
  5 23  1  0
 23 27  1  0
 23 25  1  0
 27 26  1  0
 26 22  1  0
 25  6  1  0
  6  3  2  0
  6 22  1  0
 22 14  1  0
 14 10  2  0
 14  9  1  0
 10 13  1  0
 13  1  1  0
 13  8  2  0
  9  7  2  0
  7  8  1  0
M  END
