predicted
     RDKit          3D

 18 19  0  0  0  0  0  0  0  0999 V2000
   13.8040   -1.7220   21.5470 Cl  0  0  0  0  0  0  0  0  0  0  0  0
    8.9550    1.0750   20.7980 O   0  0  0  0  0  0  0  0  0  0  0  0
    6.5340    0.4770   17.4430 N   0  0  0  0  0  0  0  0  0  0  0  0
    8.4280    0.1900   21.3860 C   0  0  0  0  0  0  0  0  0  0  0  0
    5.3850    1.1140   17.5440 C   0  0  0  0  0  3  0  0  0  0  0  0
    7.1540   -0.0060   18.5400 C   0  0  0  0  0  3  0  0  0  0  0  0
   12.1230    1.2520   23.6500 C   0  0  0  0  0  3  0  0  0  0  0  0
   13.0810    0.4360   23.0440 C   0  0  0  0  0  3  0  0  0  0  0  0
    4.7840    1.3590   18.7710 C   0  0  0  0  0  3  0  0  0  0  0  0
   10.7730    0.9640   23.5260 C   0  0  0  0  0  3  0  0  0  0  0  0
   11.3280   -0.9760   22.1740 C   0  0  0  0  0  3  0  0  0  0  0  0
   12.6630   -0.6820   22.3160 C   0  0  0  0  0  0  0  0  0  0  0  0
    6.6010    0.1770   19.7990 C   0  0  0  0  0  0  0  0  0  0  0  0
    5.3930    0.8600   19.8950 C   0  0  0  0  0  0  0  0  0  0  0  0
   10.4020   -0.1700   22.8000 C   0  0  0  0  0  0  0  0  0  0  0  0
    7.2360   -0.3290   20.9620 N   0  0  0  0  0  2  0  0  0  0  0  0
    4.7830    1.1230   21.2390 C   0  0  0  0  0  1  0  0  0  0  0  0
    8.9240   -0.4460   22.6620 C   0  0  0  0  0  2  0  0  0  0  0  0
  1 12  1  0
 12  8  2  0
 12 11  1  0
  8  7  1  0
  7 10  2  0
 10 15  1  0
 11 15  2  0
 15 18  1  0
 18  4  1  0
  4  2  2  0
  4 16  1  0
 16 13  1  0
 13 14  2  0
 13  6  1  0
 14 17  1  0
 14  9  1  0
  6  3  2  0
  3  5  1  0
  5  9  2  0
M  END
