predicted
     RDKit          3D

 27 29  0  0  0  0  0  0  0  0999 V2000
   13.8140   -1.7640   22.0690 Cl  0  0  0  0  0  0  0  0  0  0  0  0
    8.7930    0.7780   21.1740 O   0  0  0  0  0  0  0  0  0  0  0  0
    6.4940    0.2280   17.6470 N   0  0  0  0  0  0  0  0  0  0  0  0
    3.0470    1.6600   22.8400 O   0  0  0  0  0  0  0  0  0  0  0  0
    8.2910   -0.2040   21.6640 C   0  0  0  0  0  0  0  0  0  0  0  0
    7.0750   -0.3280   18.7190 C   0  0  0  0  0  3  0  0  0  0  0  0
   11.7840    0.9950   24.1540 C   0  0  0  0  0  3  0  0  0  0  0  0
   12.8270    0.2730   23.5790 C   0  0  0  0  0  3  0  0  0  0  0  0
   10.4710    0.6010   23.9620 C   0  0  0  0  0  3  0  0  0  0  0  0
   11.2590   -1.2520   22.5840 C   0  0  0  0  0  3  0  0  0  0  0  0
    3.1020    2.0310   20.5100 C   0  0  0  0  0  3  0  0  0  0  0  0
   12.5470   -0.8470   22.7990 C   0  0  0  0  0  0  0  0  0  0  0  0
    3.6700    1.4820   21.6030 C   0  0  0  0  0  0  0  0  0  0  0  0
   10.2530   -0.5310   23.1520 C   0  0  0  0  0  0  0  0  0  0  0  0
    5.3750    0.9200   17.8030 C   0  0  0  0  0  3  0  0  0  0  0  0
    3.6450    1.8720   19.2500 C   0  0  0  0  0  3  0  0  0  0  0  0
    4.8070    0.7480   21.4550 C   0  0  0  0  0  3  0  0  0  0  0  0
    6.5880   -0.2090   19.9860 C   0  0  0  0  0  0  0  0  0  0  0  0
    4.7820    1.1340   19.0710 C   0  0  0  0  0  0  0  0  0  0  0  0
    5.3910    0.5500   20.2040 C   0  0  0  0  0  0  0  0  0  0  0  0
    7.1950   -0.7930   21.1190 N   0  0  0  0  0  2  0  0  0  0  0  0
    8.8200   -0.9180   22.8910 C   0  0  0  0  0  2  0  0  0  0  0  0
    3.6960    1.5600   24.0420 C   0  0  0  0  0  2  0  0  0  0  0  0
    0.7310    2.8980   25.7310 C   0  0  0  0  0  1  0  0  0  0  0  0
    0.8620    0.5660   25.1950 C   0  0  0  0  0  1  0  0  0  0  0  0
    2.8540    1.9600   25.2260 C   0  0  0  0  0  2  0  0  0  0  0  0
    1.4190    1.9010   25.0020 N   0  0  0  0  0  3  0  0  0  0  0  0
  1 12  1  0
 12  8  2  0
 12 10  1  0
  8  7  1  0
  7  9  2  0
  9 14  1  0
 10 14  2  0
 14 22  1  0
 22  5  1  0
  5  2  2  0
  5 21  1  0
 21 18  1  0
 18  6  2  0
 18 20  1  0
  6  3  1  0
  3 15  2  0
 15 19  1  0
 20 19  2  0
 20 17  1  0
 19 16  1  0
 16 11  2  0
 11 13  1  0
 17 13  2  0
 13  4  1  0
  4 23  1  0
 23 26  1  0
 26 27  1  0
 27 24  1  0
 27 25  1  0
M  CHG  1  27   1
M  END
