predicted
     RDKit          3D

 28 31  0  0  0  0  0  0  0  0999 V2000
    8.9870    1.1940   20.9080 O   0  0  0  0  0  0  0  0  0  0  0  0
    6.5290    0.4030   17.7900 N   0  0  0  0  0  0  0  0  0  0  0  0
   12.6440    0.9930   23.6720 N   0  0  0  0  0  0  0  0  0  0  0  0
    7.3950   -0.2820   18.4700 N   0  0  0  0  0  0  0  0  0  0  0  0
    8.7560    0.1220   21.4760 C   0  0  0  0  0  0  0  0  0  0  0  0
   11.6490    0.4730   23.0630 C   0  0  0  0  0  0  0  0  0  0  0  0
    9.8100   -3.5320   24.0750 C   0  0  0  0  0  3  0  0  0  0  0  0
    7.9770   -2.4870   25.2010 C   0  0  0  0  0  3  0  0  0  0  0  0
    9.9640   -2.4020   23.3110 C   0  0  0  0  0  3  0  0  0  0  0  0
    8.1480   -1.3550   24.4350 C   0  0  0  0  0  3  0  0  0  0  0  0
    3.7750    2.1000   19.6020 C   0  0  0  0  0  3  0  0  0  0  0  0
    4.1540    1.7180   20.8860 C   0  0  0  0  0  3  0  0  0  0  0  0
   12.1530   -0.4610   22.1970 C   0  0  0  0  0  3  0  0  0  0  0  0
    8.8350   -3.5960   25.0450 C   0  0  0  0  0  0  0  0  0  0  0  0
    9.1540   -1.3220   23.4830 C   0  0  0  0  0  0  0  0  0  0  0  0
    4.4940    1.7000   18.4780 C   0  0  0  0  0  3  0  0  0  0  0  0
    5.2780    0.9380   21.0740 C   0  0  0  0  0  3  0  0  0  0  0  0
   13.5120   -0.4920   22.3720 C   0  0  0  0  0  3  0  0  0  0  0  0
    5.6150    0.8960   18.6330 C   0  0  0  0  0  0  0  0  0  0  0  0
    5.9770    0.5140   19.9430 C   0  0  0  0  0  0  0  0  0  0  0  0
    8.6730   -4.7510   25.7990 N   0  0  0  0  0  0  0  0  0  0  0  0
    9.3040   -0.1400   22.6800 N   0  0  0  0  0  0  0  0  0  0  0  0
   13.8070    0.3620   23.2310 N   0  0  0  0  0  2  0  0  0  0  0  0
    7.0820   -0.2370   19.7610 N   0  0  0  0  0  0  0  0  0  0  0  0
    7.5260   -4.9310   26.5840 C   0  0  0  0  0  1  0  0  0  0  0  0
    9.7620   -5.6650   25.8960 C   0  0  0  0  0  1  0  0  0  0  0  0
   10.2080    0.8340   23.3050 C   0  0  0  0  0  2  0  0  0  0  0  0
    7.8720   -0.8750   20.8460 C   0  0  0  0  0  2  0  0  0  0  0  0
  1  5  2  0
  5 28  1  0
  5 22  1  0
 28 24  1  0
 24 20  1  0
 24  4  1  0
 20 17  2  0
 20 19  1  0
 17 12  1  0
 12 11  2  0
 11 16  1  0
 16 19  2  0
 19  2  1  0
  2  4  2  0
 22 27  1  0
 22 15  1  0
 27  6  1  0
  6  3  2  0
  6 13  1  0
  3 23  1  0
 23 18  1  0
 18 13  2  0
 15  9  2  0
 15 10  1  0
  9  7  1  0
  7 14  2  0
 10  8  2  0
  8 14  1  0
 14 21  1  0
 21 26  1  0
 21 25  1  0
M  END
