predicted
     RDKit          3D

 27 30  0  0  0  0  0  0  0  0999 V2000
   13.7970   -1.9900   21.6720 Cl  0  0  0  0  0  0  0  0  0  0  0  0
    9.1110    1.0100   21.1570 O   0  0  0  0  0  0  0  0  0  0  0  0
   10.3050    1.6670   26.1370 O   0  0  0  0  0  0  0  0  0  0  0  0
   10.4770    3.3400   24.2880 O   0  0  0  0  0  0  0  0  0  0  0  0
    6.5710    0.3460   17.8250 N   0  0  0  0  0  0  0  0  0  0  0  0
    8.5360    0.0990   21.7460 C   0  0  0  0  0  0  0  0  0  0  0  0
    7.1740   -0.1010   18.9160 C   0  0  0  0  0  3  0  0  0  0  0  0
    5.4550    1.0450   17.9100 C   0  0  0  0  0  3  0  0  0  0  0  0
   13.3350    0.1620   23.1540 C   0  0  0  0  0  3  0  0  0  0  0  0
   11.4160   -1.1040   22.4060 C   0  0  0  0  0  3  0  0  0  0  0  0
   12.5300    1.0320   23.8230 C   0  0  0  0  0  3  0  0  0  0  0  0
   12.7790   -0.9080   22.4480 C   0  0  0  0  0  0  0  0  0  0  0  0
    6.6820    0.1330   20.1980 C   0  0  0  0  0  0  0  0  0  0  0  0
    4.8820    1.3400   19.1620 C   0  0  0  0  0  0  0  0  0  0  0  0
    5.5010    0.8890   20.3270 C   0  0  0  0  0  0  0  0  0  0  0  0
   10.5640   -0.2580   23.1210 C   0  0  0  0  0  0  0  0  0  0  0  0
   11.1430    0.8310   23.7980 C   0  0  0  0  0  0  0  0  0  0  0  0
    7.3230   -0.3540   21.3440 N   0  0  0  0  0  2  0  0  0  0  0  0
    8.6630    1.6490   24.2650 N   0  0  0  0  0  2  0  0  0  0  0  0
    3.7320    2.0780   19.2730 C   0  0  0  0  0  2  0  0  0  0  0  0
    4.9470    1.1880   21.5900 C   0  0  0  0  0  2  0  0  0  0  0  0
    3.1920    2.3610   20.5150 C   0  0  0  0  0  2  0  0  0  0  0  0
    3.8060    1.9080   21.6660 C   0  0  0  0  0  2  0  0  0  0  0  0
    8.8320   -1.9650   23.1570 C   0  0  0  0  0  1  0  0  0  0  0  0
    8.3480    0.2130   24.2200 C   0  0  0  0  0  2  0  0  0  0  0  0
    9.0900   -0.4710   23.0380 C   0  0  2  0  0  0  0  0  0  0  0  0
   10.1900    1.9690   24.7090 S   0  0  1  0  0  6  0  0  0  0  0  0
  2  6  2  0
  6 26  1  0
  6 18  1  0
 26 16  1  0
 26 25  1  0
 26 24  1  1
 16 10  2  0
 16 17  1  0
 10 12  1  0
 12  1  1  0
 12  9  2  0
  9 11  1  0
 11 17  2  0
 17 27  1  0
 27  3  2  0
 27  4  2  0
 27 19  1  1
 19 25  1  0
 18 13  1  0
 13 15  1  0
 13  7  2  0
 15 21  1  0
 15 14  2  0
 21 23  1  0
 23 22  1  0
 22 20  1  0
 20 14  1  0
 14  8  1  0
  8  5  2  0
  5  7  1  0
M  END
