predicted
     RDKit          3D

 28 31  0  0  0  0  0  0  0  0999 V2000
  -13.8790   -2.5070  -20.6790 Cl  0  0  0  0  0  0  0  0  0  0  0  0
   -8.0620   -3.0370  -22.0100 O   0  0  0  0  0  0  0  0  0  0  0  0
   -9.3160    0.7730  -21.1000 O   0  0  0  0  0  0  0  0  0  0  0  0
   -6.9380    0.3610  -17.5690 N   0  0  0  0  0  0  0  0  0  0  0  0
  -10.7700   -0.8380  -25.2970 O   0  0  0  0  0  0  0  0  0  0  0  0
   -7.6820   -2.3830  -21.1300 C   0  0  0  0  0  0  0  0  0  0  0  0
   -8.9600   -0.3040  -21.5520 C   0  0  0  0  0  0  0  0  0  0  0  0
   -7.6250   -0.2670  -18.5150 C   0  0  0  0  0  3  0  0  0  0  0  0
  -13.4920   -2.0670  -23.3000 C   0  0  0  0  0  3  0  0  0  0  0  0
  -12.7560   -1.6870  -24.3750 C   0  0  0  0  0  3  0  0  0  0  0  0
  -11.6350   -1.6390  -21.8340 C   0  0  0  0  0  3  0  0  0  0  0  0
   -3.5720    1.3830  -20.7530 C   0  0  0  0  0  3  0  0  0  0  0  0
   -4.2660    0.7370  -21.7450 C   0  0  0  0  0  3  0  0  0  0  0  0
  -12.9300   -2.0400  -22.0160 C   0  0  0  0  0  0  0  0  0  0  0  0
  -11.4520   -1.2840  -24.1950 C   0  0  0  0  0  0  0  0  0  0  0  0
  -10.8710   -1.2020  -22.9110 C   0  0  0  0  0  0  0  0  0  0  0  0
   -5.7680    0.9030  -17.8530 C   0  0  0  0  0  3  0  0  0  0  0  0
   -4.0600    1.4450  -19.4650 C   0  0  0  0  0  3  0  0  0  0  0  0
   -5.4500    0.1550  -21.4770 C   0  0  0  0  0  3  0  0  0  0  0  0
   -7.2260   -0.3620  -19.8320 C   0  0  0  0  0  0  0  0  0  0  0  0
   -5.2610    0.8610  -19.1580 C   0  0  0  0  0  0  0  0  0  0  0  0
   -5.9730    0.2030  -20.1540 C   0  0  0  0  0  0  0  0  0  0  0  0
   -7.9720   -1.0380  -20.8670 N   0  0  0  0  0  0  0  0  0  0  0  0
   -7.8460   -3.8840  -19.1400 C   0  0  0  0  0  1  0  0  0  0  0  0
   -9.3390   -0.6220  -25.2470 C   0  0  0  0  0  2  0  0  0  0  0  0
   -6.9030   -3.1890  -20.1330 C   0  0  0  0  0  2  0  0  0  0  0  0
   -8.8640   -0.1160  -24.0060 C   0  0  0  0  0  2  0  0  0  0  0  0
   -9.4720   -0.7870  -22.8210 C   0  0  0  0  0  3  0  0  0  0  0  0
  1 14  1  0
 14  9  2  0
 14 11  1  0
  9 10  1  0
 10 15  2  0
 15  5  1  0
 15 16  1  0
  5 25  1  0
 25 27  1  0
 27 28  1  0
 11 16  2  0
 16 28  1  0
 28  7  1  0
  7  3  2  0
  7 23  1  0
 23  6  1  0
 23 20  1  0
  6  2  2  0
  6 26  1  0
 26 24  1  0
 20  8  2  0
 20 22  1  0
  8  4  1  0
  4 17  2  0
 17 21  1  0
 21 22  2  0
 21 18  1  0
 22 19  1  0
 18 12  2  0
 12 13  1  0
 13 19  2  0
M  END
