predicted
     RDKit          3D

 31 34  0  0  0  0  0  0  0  0999 V2000
   13.9350   -1.2410   21.8190 Cl  0  0  0  0  0  0  0  0  0  0  0  0
    6.2880   -4.5960   20.1060 N   0  0  0  0  0  0  0  0  0  0  0  0
    5.7320   -5.1850   24.9740 O   0  0  0  0  0  0  0  0  0  0  0  0
    9.0470    0.4870   21.4230 O   0  0  0  0  0  0  0  0  0  0  0  0
    6.7880   -5.5660   21.0170 C   0  0  0  0  0  0  0  0  0  0  0  0
    6.6430    0.3070   17.5660 N   0  0  0  0  0  0  0  0  0  0  0  0
    6.2720   -4.3080   24.4480 C   0  0  0  0  0  0  0  0  0  0  0  0
    8.4600   -0.5430   21.6030 C   0  0  0  0  0  0  0  0  0  0  0  0
    7.1950   -0.3250   18.5630 C   0  0  0  0  0  3  0  0  0  0  0  0
   12.7920   -2.2080   23.9930 C   0  0  0  0  0  3  0  0  0  0  0  0
   11.7060   -2.5400   24.7640 C   0  0  0  0  0  3  0  0  0  0  0  0
   11.3200   -1.4220   22.3130 C   0  0  0  0  0  3  0  0  0  0  0  0
    3.5340    2.3090   20.6010 C   0  0  0  0  0  3  0  0  0  0  0  0
    4.1300    1.6780   21.6590 C   0  0  0  0  0  3  0  0  0  0  0  0
   12.5820   -1.6370   22.7710 C   0  0  0  0  0  0  0  0  0  0  0  0
   10.4100   -2.3130   24.3000 C   0  0  0  0  0  0  0  0  0  0  0  0
   10.2050   -1.6880   23.0820 C   0  0  0  0  0  0  0  0  0  0  0  0
    5.5840    1.0850   17.7750 C   0  0  0  0  0  3  0  0  0  0  0  0
    4.0000    2.1340   19.3200 C   0  0  0  0  0  3  0  0  0  0  0  0
    5.1940    0.8580   21.4640 C   0  0  0  0  0  3  0  0  0  0  0  0
    6.7920   -0.1740   19.8700 C   0  0  0  0  0  0  0  0  0  0  0  0
    5.0810    1.3030   19.0710 C   0  0  0  0  0  0  0  0  0  0  0  0
    5.6880    0.6530   20.1460 C   0  0  0  0  0  0  0  0  0  0  0  0
    7.3700   -0.9310   20.8950 N   0  0  0  0  0  2  0  0  0  0  0  0
    6.5440   -4.4240   23.1060 N   0  0  0  0  0  2  0  0  0  0  0  0
    6.0180   -5.5410   22.3050 C   0  0  0  0  0  2  0  0  0  0  0  0
    6.8080   -3.0660   25.1500 C   0  0  0  0  0  2  0  0  0  0  0  0
    9.2120   -2.6700   25.1990 C   0  0  0  0  0  2  0  0  0  0  0  0
    7.8180   -1.5200   23.7130 C   0  0  0  0  0  2  0  0  0  0  0  0
    8.8230   -1.5440   22.5810 C   0  0  0  0  0  3  0  0  0  0  0  0
    7.9440   -2.6930   24.4760 N   0  0  0  0  0  3  0  0  0  0  0  0
  4  8  2  0
  8 24  1  0
  8 30  1  0
 24 21  1  0
 21 23  1  0
 21  9  2  0
 23 20  2  0
 23 22  1  0
 20 14  1  0
 14 13  2  0
 13 19  1  0
 19 22  2  0
 22 18  1  0
 18  6  2  0
  6  9  1  0
 30 17  1  0
 30 29  1  0
 17 16  1  0
 17 12  2  0
 16 11  2  0
 16 28  1  0
 11 10  1  0
 10 15  2  0
 12 15  1  0
 15  1  1  0
 29 31  1  0
 31 28  1  0
 31 27  1  0
 27  7  1  0
  7  3  2  0
  7 25  1  0
 25 26  1  0
 26  5  1  0
  5  2  3  0
M  CHG  1  31   1
M  END
