predicted
     RDKit          3D

 18 20  0  0  0  0  0  0  0  0999 V2000
   -4.9060   -2.4930    8.9390 O   0  0  0  0  0  0  0  0  0  0  0  0
   -6.6080   -8.2320    7.4000 O   0  0  0  0  0  0  0  0  0  0  0  0
   -8.1330   -6.9840    8.4790 O   0  0  0  0  0  0  0  0  0  0  0  0
   -5.5220   -2.8170    7.9920 C   0  0  0  0  0  0  0  0  0  0  0  0
   -5.0380   -6.3900    6.9440 C   0  0  0  0  0  3  0  0  0  0  0  0
   -4.8480   -5.0540    7.1070 C   0  0  0  0  0  3  0  0  0  0  0  0
   -6.9340   -4.8700    8.2660 C   0  0  0  0  0  3  0  0  0  0  0  0
   -6.1900   -6.9900    7.4240 C   0  0  0  0  0  0  0  0  0  0  0  0
   -7.1090   -6.2230    8.0910 C   0  0  0  0  0  0  0  0  0  0  0  0
   -5.7960   -4.3010    7.7700 C   0  0  0  0  0  0  0  0  0  0  0  0
   -5.9910   -1.8570    7.2020 N   0  0  0  0  0  0  0  0  0  0  0  0
   -7.8440   -8.2670    8.0450 C   0  0  0  0  0  2  0  0  0  0  0  0
   -5.8070   -0.5570    7.6540 C   0  0  0  0  0  2  0  0  0  0  0  0
   -6.6770   -2.1330    5.9610 C   0  0  0  0  0  2  0  0  0  0  0  0
   -6.3580    0.6490    7.0870 C   0  0  0  0  0  2  0  0  0  0  0  0
   -6.2250   -1.3280    4.7720 C   0  0  0  0  0  2  0  0  0  0  0  0
   -6.0520    0.9980    5.6880 C   0  0  0  0  0  2  0  0  0  0  0  0
   -6.6980    0.0820    4.6860 C   0  0  0  0  0  2  0  0  0  0  0  0
  4 10  1  0
  4 11  1  0
  4  1  2  0
 13 15  1  0
 13 11  1  0
 15 17  1  0
 17 18  1  0
 18 16  1  0
 16 14  1  0
 14 11  1  0
 10  6  2  0
 10  7  1  0
  6  5  1  0
  5  8  2  0
  8  9  1  0
  8  2  1  0
 12  2  1  0
 12  3  1  0
  9  7  2  0
  9  3  1  0
M  END
