predicted
     RDKit          3D

 20 21  0  0  0  0  0  0  0  0999 V2000
    6.2890   -4.6350   20.0900 O   0  0  0  0  0  0  0  0  0  0  0  0
    8.3640    0.1090   25.2840 O   0  0  0  0  0  0  0  0  0  0  0  0
    8.3250   -2.0220   26.2900 O   0  0  0  0  0  0  0  0  0  0  0  0
    6.8090   -3.5430   20.2040 C   0  0  0  0  0  0  0  0  0  0  0  0
   13.1580   -1.7570   24.1820 C   0  0  0  0  0  3  0  0  0  0  0  0
   12.5100   -0.5900   23.8840 C   0  0  0  0  0  3  0  0  0  0  0  0
   12.4300   -2.7720   24.7660 C   0  0  0  0  0  3  0  0  0  0  0  0
   11.1570   -0.4370   24.1890 C   0  0  0  0  0  0  0  0  0  0  0  0
   11.0690   -2.6240   25.0720 C   0  0  0  0  0  0  0  0  0  0  0  0
   10.4410   -1.4460   24.8080 C   0  0  0  0  0  0  0  0  0  0  0  0
    6.8820   -2.9680   21.4480 N   0  0  0  0  0  0  0  0  0  0  0  0
    8.0080   -1.9020   23.7570 N   0  0  0  0  0  0  0  0  0  0  0  0
    7.3310   -2.8180   19.0090 C   0  0  0  0  0  1  0  0  0  0  0  0
    6.8350   -3.7350   22.6740 C   0  0  0  0  0  2  0  0  0  0  0  0
    7.0150   -1.5030   21.5890 C   0  0  0  0  0  2  0  0  0  0  0  0
    8.0320   -3.3260   23.5640 C   0  0  0  0  0  2  0  0  0  0  0  0
    8.1910   -1.1690   22.5170 C   0  0  0  0  0  2  0  0  0  0  0  0
    8.7360   -1.2760   25.1020 S   0  0  2  0  0  6  0  0  0  0  0  0
   10.5610    0.7240   23.8400 F   0  0  0  0  0  0  0  0  0  0  0  0
   10.3630   -3.6340   25.6090 F   0  0  0  0  0  0  0  0  0  0  0  0
 12 16  1  0
 12 17  1  0
 18 12  1  1
  8  6  2  0
  8 10  1  0
  8 19  1  0
  2 18  2  0
  6  5  1  0
  4 13  1  0
  4 11  1  0
  4  1  2  0
  5  7  2  0
  7  9  1  0
  9 10  2  0
  9 20  1  0
 10 18  1  0
 16 14  1  0
 14 11  1  0
 15 17  1  0
 15 11  1  0
  3 18  2  0
M  END
