predicted
     RDKit          3D

 32 36  0  0  0  0  0  0  0  0999 V2000
   13.9230   -1.2930   21.6810 Cl  0  0  0  0  0  0  0  0  0  0  0  0
    6.9750   -2.9780   24.9600 O   0  0  0  0  0  0  0  0  0  0  0  0
    8.8230    0.6260   21.1850 O   0  0  0  0  0  0  0  0  0  0  0  0
    6.5270    0.3080   17.5890 N   0  0  0  0  0  0  0  0  0  0  0  0
    9.6490   -5.0860   26.9920 N   0  0  0  0  0  0  0  0  0  0  0  0
    7.9360   -2.4400   25.3670 C   0  0  0  0  0  0  0  0  0  0  0  0
    8.3360   -0.4300   21.4980 C   0  0  0  0  0  0  0  0  0  0  0  0
    9.4330   -4.2500   28.0220 C   0  0  0  0  0  3  0  0  0  0  0  0
    7.1210   -0.3200   18.5910 C   0  0  0  0  0  3  0  0  0  0  0  0
   12.7830   -0.0620   23.7710 C   0  0  0  0  0  3  0  0  0  0  0  0
   11.7240    0.2280   24.5950 C   0  0  0  0  0  3  0  0  0  0  0  0
   11.3050   -1.2080   22.2800 C   0  0  0  0  0  3  0  0  0  0  0  0
    3.1850    1.8720   20.6410 C   0  0  0  0  0  3  0  0  0  0  0  0
    3.7980    1.2190   21.6690 C   0  0  0  0  0  3  0  0  0  0  0  0
    8.7730   -3.1530   27.5830 C   0  0  0  0  0  3  0  0  0  0  0  0
   12.5750   -0.8000   22.6230 C   0  0  0  0  0  0  0  0  0  0  0  0
   10.4240   -0.2100   24.2390 C   0  0  0  0  0  0  0  0  0  0  0  0
   10.2290   -0.8640   23.0440 C   0  0  0  0  0  0  0  0  0  0  0  0
    5.4060    0.9960   17.8080 C   0  0  0  0  0  3  0  0  0  0  0  0
    3.7040    1.8230   19.3590 C   0  0  0  0  0  3  0  0  0  0  0  0
    4.9340    0.5080   21.4580 C   0  0  0  0  0  3  0  0  0  0  0  0
    6.6320   -0.2810   19.8720 C   0  0  0  0  0  0  0  0  0  0  0  0
    8.6000   -3.3030   26.2470 C   0  0  0  0  0  0  0  0  0  0  0  0
    4.8470    1.0910   19.0970 C   0  0  0  0  0  0  0  0  0  0  0  0
    5.4680    0.4350   20.1590 C   0  0  0  0  0  0  0  0  0  0  0  0
    7.2820   -0.9760   20.9040 N   0  0  0  0  0  2  0  0  0  0  0  0
    8.3080   -1.2000   24.8910 N   0  0  0  0  0  0  0  0  0  0  0  0
    9.0950   -4.5310   25.9060 N   0  0  0  0  0  0  0  0  0  0  0  0
    9.3160   -0.1000   25.2630 C   0  0  0  0  0  2  0  0  0  0  0  0
    9.1630   -5.1260   24.6650 C   0  0  0  0  0  1  0  0  0  0  0  0
    7.8300   -1.0000   23.7400 C   0  0  0  0  0  2  0  0  0  0  0  0
    8.8510   -1.2700   22.6270 C   0  0  0  0  0  3  0  0  0  0  0  0
  1 16  1  0
 16 12  2  0
 16 10  1  0
 12 18  1  0
 10 11  2  0
 11 17  1  0
 17 29  1  0
 17 18  2  0
 29 27  1  0
 27  6  1  0
 27 31  1  0
  6  2  2  0
  6 23  1  0
 23 15  2  0
 23 28  1  0
 15  8  1  0
  8  5  2  0
  5 28  1  0
 28 30  1  0
 18 32  1  0
 32 31  1  0
 32  7  1  0
  7  3  2  0
  7 26  1  0
 26 22  1  0
 22 25  1  0
 22  9  2  0
 25 21  2  0
 25 24  1  0
 21 14  1  0
 14 13  2  0
 13 20  1  0
 20 24  2  0
 24 19  1  0
 19  4  2  0
  4  9  1  0
M  END
