predicted
     RDKit          3D

 33 37  0  0  0  0  0  0  0  0999 V2000
   13.7550   -2.0320   21.6340 Cl  0  0  0  0  0  0  0  0  0  0  0  0
    9.1590    0.8680   20.8710 O   0  0  0  0  0  0  0  0  0  0  0  0
    6.6730    0.3570   17.7760 N   0  0  0  0  0  0  0  0  0  0  0  0
    7.9350   -3.6480   26.0290 N   0  0  0  0  0  0  0  0  0  0  0  0
   10.6090    1.9690   24.5050 O   0  0  0  0  0  0  0  0  0  0  0  0
    8.5990    0.1980   21.6870 C   0  0  0  0  0  0  0  0  0  0  0  0
    7.2730   -0.0380   18.8930 C   0  0  0  0  0  3  0  0  0  0  0  0
    8.1450   -4.1450   24.8010 C   0  0  0  0  0  0  0  0  0  0  0  0
   13.4250    0.1450   23.2000 C   0  0  0  0  0  3  0  0  0  0  0  0
   12.6710    1.1030   23.8320 C   0  0  0  0  0  3  0  0  0  0  0  0
   11.4320   -0.9620   22.4120 C   0  0  0  0  0  3  0  0  0  0  0  0
    3.0890    2.0200   20.4370 C   0  0  0  0  0  3  0  0  0  0  0  0
    3.6940    1.6000   21.5880 C   0  0  0  0  0  3  0  0  0  0  0  0
    8.9840   -5.2260   24.9120 C   0  0  0  0  0  3  0  0  0  0  0  0
   12.8030   -0.8840   22.4800 C   0  0  0  0  0  0  0  0  0  0  0  0
   11.3020    1.0290   23.7650 C   0  0  0  0  0  0  0  0  0  0  0  0
   10.6310   -0.0100   23.0640 C   0  0  0  0  0  0  0  0  0  0  0  0
    5.5130    0.9510   17.8500 C   0  0  0  0  0  3  0  0  0  0  0  0
    3.6860    1.8250   19.1960 C   0  0  0  0  0  3  0  0  0  0  0  0
    4.8980    0.9740   21.5500 C   0  0  0  0  0  3  0  0  0  0  0  0
    6.7460    0.1600   20.1620 C   0  0  0  0  0  0  0  0  0  0  0  0
    9.2670   -5.3760   26.2670 C   0  0  0  0  0  3  0  0  0  0  0  0
    4.8800    1.1900   19.1020 C   0  0  0  0  0  0  0  0  0  0  0  0
    5.5130    0.7780   20.2870 C   0  0  0  0  0  0  0  0  0  0  0  0
    7.4060   -0.2490   21.3450 N   0  0  0  0  0  2  0  0  0  0  0  0
    8.5990   -4.4140   26.8970 N   0  0  0  0  0  0  0  0  0  0  0  0
    8.5960   -4.2230   28.3090 C   0  0  0  0  0  1  0  0  0  0  0  0
    9.2690    2.2340   24.0190 C   0  0  0  0  0  2  0  0  0  0  0  0
    8.4890    0.9400   24.0130 C   0  0  0  0  0  2  0  0  0  0  0  0
    7.5760   -3.6020   23.4960 C   0  0  0  0  0  2  0  0  0  0  0  0
    8.8410   -1.5140   23.6630 C   0  0  0  0  0  2  0  0  0  0  0  0
    9.1470   -0.0890   23.0820 C   0  0  1  0  0  0  0  0  0  0  0  0
    7.7180   -2.1750   23.2650 N   0  0  0  0  0  2  0  0  0  0  0  0
  2  6  2  0
  6 25  1  0
  6 32  1  0
 25 21  1  0
 21 24  1  0
 21  7  2  0
 24 20  2  0
 24 23  1  0
 20 13  1  0
 13 12  2  0
 12 19  1  0
 19 23  2  0
 23 18  1  0
 18  3  2  0
  3  7  1  0
 32 17  1  0
 32 29  1  0
 32 31  1  6
 17 11  2  0
 17 16  1  0
 11 15  1  0
 15  1  1  0
 15  9  2  0
  9 10  1  0
 10 16  2  0
 16  5  1  0
  5 28  1  0
 28 29  1  0
 31 33  1  0
 33 30  1  0
 30  8  1  0
  8 14  1  0
  8  4  2  0
 14 22  2  0
 22 26  1  0
  4 26  1  0
 26 27  1  0
M  CHG  1  33   1
M  END
