predicted
     RDKit          3D

 25 27  0  0  0  0  0  0  0  0999 V2000
    6.1690   -4.8060   19.6720 O   0  0  0  0  0  0  0  0  0  0  0  0
    6.2020   -1.1440   26.3250 O   0  0  0  0  0  0  0  0  0  0  0  0
    7.9350   -2.3270   27.5080 O   0  0  0  0  0  0  0  0  0  0  0  0
    6.8060   -3.1180   23.2950 N   0  0  0  0  0  0  0  0  0  0  0  0
    5.8370   -5.2350   22.2650 S   0  0  0  0  0  0  0  0  0  0  0  0
    6.7200   -3.6590   19.7520 C   0  0  0  0  0  0  0  0  0  0  0  0
    6.5720   -3.6810   22.1340 C   0  0  0  0  0  0  0  0  0  0  0  0
   13.8550   -0.4840   23.0360 C   0  0  0  0  0  3  0  0  0  0  0  0
   12.6640    0.2250   22.9880 C   0  0  0  0  0  3  0  0  0  0  0  0
   13.8000   -1.8440   23.3240 C   0  0  0  0  0  3  0  0  0  0  0  0
   11.4610   -0.4030   23.1760 C   0  0  0  0  0  3  0  0  0  0  0  0
   12.5900   -2.4510   23.5090 C   0  0  0  0  0  3  0  0  0  0  0  0
    6.2090   -4.5510   26.6060 C   0  0  0  0  0  3  0  0  0  0  0  0
    5.6600   -5.7470   26.2010 C   0  0  0  0  0  3  0  0  0  0  0  0
   11.4270   -1.7400   23.4840 C   0  0  0  0  0  0  0  0  0  0  0  0
    6.5890   -3.6310   25.6310 C   0  0  0  0  0  0  0  0  0  0  0  0
    5.4960   -6.0410   24.8490 C   0  0  0  0  0  3  0  0  0  0  0  0
    6.4600   -3.8880   24.3070 C   0  0  0  0  0  0  0  0  0  0  0  0
    5.8970   -5.1170   23.9410 C   0  0  0  0  0  0  0  0  0  0  0  0
    6.9060   -3.0760   20.9730 N   0  0  0  0  0  2  0  0  0  0  0  0
    8.4000   -1.5850   25.1980 N   0  0  0  0  0  2  0  0  0  0  0  0
    7.1930   -2.8600   18.5470 C   0  0  0  0  0  1  0  0  0  0  0  0
   10.1130   -2.4200   23.7130 C   0  0  0  0  0  2  0  0  0  0  0  0
    9.6170   -2.3920   25.0760 C   0  0  0  0  0  2  0  0  0  0  0  0
    7.2790   -2.1010   26.1970 S   0  0  1  0  0  6  0  0  0  0  0  0
  2 25  2  0
 25  3  2  0
 25 21  1  1
 25 16  1  0
 21 24  1  0
 24 23  1  0
 23 15  1  0
 15 11  2  0
 15 12  1  0
 11  9  1  0
  9  8  2  0
  8 10  1  0
 10 12  2  0
 16 13  2  0
 16 18  1  0
 13 14  1  0
 14 17  2  0
 17 19  1  0
 19 18  2  0
 19  5  1  0
 18  4  1  0
  4  7  2  0
  5  7  1  0
  7 20  1  0
 20  6  1  0
  6  1  2  0
  6 22  1  0
M  END
