predicted
     RDKit          3D

 33 36  0  0  0  0  0  0  0  0999 V2000
   13.6740   -1.5560   21.7150 Cl  0  0  0  0  0  0  0  0  0  0  0  0
    6.2350   -4.9120   25.4550 O   0  0  0  0  0  0  0  0  0  0  0  0
    8.8350    0.2010   21.4510 O   0  0  0  0  0  0  0  0  0  0  0  0
    1.3770    2.4110   22.1670 O   0  0  0  0  0  0  0  0  0  0  0  0
    1.0510    2.7440   19.8190 O   0  0  0  0  0  0  0  0  0  0  0  0
    6.6360    0.2700   17.5620 N   0  0  0  0  0  0  0  0  0  0  0  0
    6.4920   -4.0430   26.2270 C   0  0  0  0  0  0  0  0  0  0  0  0
    8.2430   -0.8320   21.6110 C   0  0  0  0  0  0  0  0  0  0  0  0
    7.1470   -0.4360   18.5750 C   0  0  0  0  0  3  0  0  0  0  0  0
   12.5920   -2.4890   23.9100 C   0  0  0  0  0  3  0  0  0  0  0  0
   11.5220   -2.8060   24.7320 C   0  0  0  0  0  3  0  0  0  0  0  0
   11.0700   -1.7000   22.2690 C   0  0  0  0  0  3  0  0  0  0  0  0
    3.9270    1.2350   21.6450 C   0  0  0  0  0  3  0  0  0  0  0  0
   12.3500   -1.9220   22.6860 C   0  0  0  0  0  0  0  0  0  0  0  0
   10.2150   -2.5610   24.3230 C   0  0  0  0  0  0  0  0  0  0  0  0
    9.9740   -1.9670   23.0810 C   0  0  0  0  0  0  0  0  0  0  0  0
    3.3590    1.9560   20.5970 C   0  0  0  0  0  0  0  0  0  0  0  0
    5.5600    1.0150   17.7680 C   0  0  0  0  0  3  0  0  0  0  0  0
    3.8890    1.8980   19.3260 C   0  0  0  0  0  3  0  0  0  0  0  0
    5.0000    0.4660   21.4190 C   0  0  0  0  0  3  0  0  0  0  0  0
    6.6490   -0.4060   19.8510 C   0  0  0  0  0  0  0  0  0  0  0  0
    4.9810    1.1190   19.0650 C   0  0  0  0  0  0  0  0  0  0  0  0
    5.5320    0.3980   20.1290 C   0  0  0  0  0  0  0  0  0  0  0  0
    7.1790   -1.2310   20.8850 N   0  0  0  0  0  2  0  0  0  0  0  0
    6.7240   -4.2010   27.5030 N   0  0  0  0  0  2  0  0  0  0  0  0
    6.6010   -5.4790   28.0920 C   0  0  0  0  0  1  0  0  0  0  0  0
    6.7380   -2.6670   25.7240 C   0  0  0  0  0  2  0  0  0  0  0  0
    9.0970   -2.8630   25.2820 C   0  0  0  0  0  2  0  0  0  0  0  0
    7.6460   -1.6480   23.8240 C   0  0  0  0  0  2  0  0  0  0  0  0
    2.4990    4.5660   21.0710 C   0  0  0  0  0  1  0  0  0  0  0  0
    8.5760   -1.8310   22.6490 C   0  0  0  0  0  3  0  0  0  0  0  0
    7.7440   -2.7150   24.6860 N   0  0  0  0  0  3  0  0  0  0  0  0
    1.9710    2.8990   20.9140 S   0  0  2  0  0  6  0  0  0  0  0  0
  1 14  1  0
 14 12  2  0
 14 10  1  0
 12 16  1  0
 10 11  2  0
 11 15  1  0
 15 28  1  0
 15 16  2  0
 28 32  1  0
 32 27  1  0
 32 29  1  0
 27  7  1  0
  7  2  2  0
  7 25  1  0
 25 26  1  0
 16 31  1  0
 31 29  1  0
 31  8  1  0
  8  3  2  0
  8 24  1  0
 24 21  1  0
 21 23  2  0
 21  9  1  0
 23 22  1  0
 23 20  1  0
 22 18  2  0
 22 19  1  0
 18  6  1  0
  6  9  2  0
 20 13  2  0
 13 17  1  0
 17 19  2  0
 17 33  1  0
 33  4  2  0
 33  5  2  0
 33 30  1  1
M  CHG  1  32   1
M  END
