predicted
     RDKit          3D

 22 24  0  0  0  0  0  0  0  0999 V2000
    9.0710    1.3900   21.1920 O   0  0  0  0  0  0  0  0  0  0  0  0
    6.8300    0.3410   17.7340 N   0  0  0  0  0  0  0  0  0  0  0  0
    8.5720    0.4860   21.7640 C   0  0  0  0  0  0  0  0  0  0  0  0
    5.6700    0.9420   17.7930 C   0  0  0  0  0  3  0  0  0  0  0  0
    7.4540   -0.0470   18.8610 C   0  0  0  0  0  3  0  0  0  0  0  0
    5.0560    1.2530   18.9920 C   0  0  0  0  0  3  0  0  0  0  0  0
   12.8600    4.0900   23.4040 C   0  0  0  0  0  3  0  0  0  0  0  0
   14.1760    3.8410   23.0990 C   0  0  0  0  0  3  0  0  0  0  0  0
   11.9710   -0.5970   22.8460 C   0  0  0  0  0  3  0  0  0  0  0  0
    6.8910    0.2070   20.1030 C   0  0  0  0  0  0  0  0  0  0  0  0
    5.6720    0.8600   20.1430 C   0  0  0  0  0  0  0  0  0  0  0  0
   11.9580    3.0720   23.4310 C   0  0  0  0  0  3  0  0  0  0  0  0
   11.4620    0.6490   23.1630 C   0  0  0  0  0  0  0  0  0  0  0  0
   14.6090    2.5670   22.7890 C   0  0  0  0  0  3  0  0  0  0  0  0
   13.2760   -0.7760   22.5070 C   0  0  0  0  0  3  0  0  0  0  0  0
   12.3650    1.7400   23.1620 C   0  0  0  0  0  0  0  0  0  0  0  0
   13.6860    1.5120   22.8050 C   0  0  0  0  0  0  0  0  0  0  0  0
    7.5270   -0.1990   21.2930 N   0  0  0  0  0  2  0  0  0  0  0  0
   10.1280    0.8800   23.5310 N   0  0  0  0  0  2  0  0  0  0  0  0
   14.1220    0.2360   22.4910 N   0  0  0  0  0  3  0  0  0  0  0  0
    5.0590    1.1980   21.4610 C   0  0  0  0  0  1  0  0  0  0  0  0
    9.1230    0.0010   23.1170 C   0  0  0  0  0  2  0  0  0  0  0  0
  1  3  2  0
  3 18  1  0
  3 22  1  0
 18 10  1  0
 10  5  2  0
 10 11  1  0
  5  2  1  0
  2  4  2  0
  4  6  1  0
  6 11  2  0
 11 21  1  0
 22 19  1  0
 19 13  1  0
 13 16  1  0
 13  9  2  0
 16 12  2  0
 16 17  1  0
 12  7  1  0
  7  8  2  0
  8 14  1  0
 14 17  2  0
 17 20  1  0
 20 15  2  0
 15  9  1  0
M  CHG  1  20   1
M  END
