predicted
     RDKit          3D

 14 14  0  0  0  0  0  0  0  0999 V2000
   13.7510   -1.8970   21.4690 Cl  0  0  0  0  0  0  0  0  0  0  0  0
    6.9240   -0.4770   20.6210 O   0  0  0  0  0  0  0  0  0  0  0  0
    7.5780   -1.4060   20.2300 C   0  0  0  0  0  0  0  0  0  0  0  0
   12.5410   -0.0320   23.0520 C   0  0  0  0  0  3  0  0  0  0  0  0
   10.1720    0.0090   23.4340 C   0  0  0  0  0  3  0  0  0  0  0  0
   11.1320   -1.6710   22.0020 C   0  0  0  0  0  3  0  0  0  0  0  0
   11.4230    0.5260   23.6340 C   0  0  0  0  0  0  0  0  0  0  0  0
   12.3970   -1.1380   22.2430 C   0  0  0  0  0  0  0  0  0  0  0  0
   10.0600   -1.0940   22.6250 C   0  0  0  0  0  0  0  0  0  0  0  0
    8.4950   -2.0370   21.0210 N   0  0  0  0  0  2  0  0  0  0  0  0
    7.5500   -1.8920   18.8050 C   0  0  0  0  0  1  0  0  0  0  0  0
    8.4640   -2.8690   23.3310 C   0  0  0  0  0  1  0  0  0  0  0  0
    8.6590   -1.6680   22.3910 C   0  0  0  0  0  3  0  0  0  0  0  0
   11.5100    1.5850   24.4210 F   0  0  0  0  0  0  0  0  0  0  0  0
  2  3  2  0
  3 11  1  0
  3 10  1  0
 10 13  1  0
 13 12  1  0
 13  9  1  0
  9  5  2  0
  9  6  1  0
  5  7  1  0
  7 14  1  0
  7  4  2  0
  4  8  1  0
  8  1  1  0
  8  6  2  0
M  END
