predicted
     RDKit          3D

 31 34  0  0  0  0  0  0  0  0999 V2000
  -13.6770   -2.4240  -21.2190 Cl  0  0  0  0  0  0  0  0  0  0  0  0
   -8.8810    0.6680  -21.0800 O   0  0  0  0  0  0  0  0  0  0  0  0
   -8.2300   -1.5710  -24.8760 N   0  0  0  0  0  0  0  0  0  0  0  0
   -6.7410   -0.2240  -17.5540 N   0  0  0  0  0  0  0  0  0  0  0  0
   -8.5770   -0.3830  -21.6610 C   0  0  0  0  0  0  0  0  0  0  0  0
   -8.0650   -2.6140  -25.6960 C   0  0  0  0  0  3  0  0  0  0  0  0
   -7.3240   -0.8280  -18.5950 C   0  0  0  0  0  3  0  0  0  0  0  0
   -8.9130   -1.7520  -23.7230 C   0  0  0  0  0  0  0  0  0  0  0  0
   -9.4570   -2.9720  -23.3900 C   0  0  0  0  0  3  0  0  0  0  0  0
  -13.5270    0.1100  -24.2700 C   0  0  0  0  0  3  0  0  0  0  0  0
  -13.9890   -0.7860  -23.3030 C   0  0  0  0  0  3  0  0  0  0  0  0
   -9.2960   -4.0490  -24.2400 C   0  0  0  0  0  3  0  0  0  0  0  0
  -12.2090    0.4930  -24.2770 C   0  0  0  0  0  3  0  0  0  0  0  0
  -11.7800   -0.9120  -22.4050 C   0  0  0  0  0  3  0  0  0  0  0  0
   -3.6050    1.8020  -20.4890 C   0  0  0  0  0  3  0  0  0  0  0  0
   -4.1970    1.2050  -21.5680 C   0  0  0  0  0  3  0  0  0  0  0  0
  -13.1130   -1.3020  -22.4040 C   0  0  0  0  0  0  0  0  0  0  0  0
   -8.6000   -3.8820  -25.4260 C   0  0  0  0  0  0  0  0  0  0  0  0
  -11.3410   -0.0100  -23.3590 C   0  0  0  0  0  0  0  0  0  0  0  0
   -5.6870    0.5190  -17.7210 C   0  0  0  0  0  3  0  0  0  0  0  0
   -4.0850    1.5920  -19.2160 C   0  0  0  0  0  3  0  0  0  0  0  0
   -5.2810    0.3780  -21.4160 C   0  0  0  0  0  3  0  0  0  0  0  0
   -6.8880   -0.6900  -19.8860 C   0  0  0  0  0  0  0  0  0  0  0  0
   -5.1640    0.7580  -19.0090 C   0  0  0  0  0  0  0  0  0  0  0  0
   -5.7800    0.1370  -20.1260 C   0  0  0  0  0  0  0  0  0  0  0  0
   -8.4210   -4.9350  -26.3340 N   0  0  0  0  0  0  0  0  0  0  0  0
   -9.0480   -0.5940  -22.9010 N   0  0  0  0  0  0  0  0  0  0  0  0
   -7.6240   -1.3610  -21.0280 C   0  0  0  0  0  2  0  0  0  0  0  0
   -7.1610   -5.3380  -26.7260 C   0  0  0  0  0  1  0  0  0  0  0  0
   -9.5460   -5.7520  -26.7150 C   0  0  0  0  0  1  0  0  0  0  0  0
   -9.9200    0.4270  -23.4600 C   0  0  0  0  0  2  0  0  0  0  0  0
  2  5  2  0
  5 28  1  0
  5 27  1  0
 28 23  1  0
 23 25  1  0
 23  7  2  0
 25 22  2  0
 25 24  1  0
 22 16  1  0
 16 15  2  0
 15 21  1  0
 21 24  2  0
 24 20  1  0
 20  4  2  0
  4  7  1  0
 27  8  1  0
 27 31  1  0
  8  9  2  0
  8  3  1  0
  9 12  1  0
 12 18  2  0
  3  6  2  0
  6 18  1  0
 18 26  1  0
 26 30  1  0
 26 29  1  0
 31 19  1  0
 19 14  2  0
 19 13  1  0
 14 17  1  0
 17  1  1  0
 17 11  2  0
 11 10  1  0
 10 13  2  0
M  END
