predicted
     RDKit          3D

 35 38  0  0  0  0  0  0  0  0999 V2000
   13.8330   -1.9780   21.5230 Cl  0  0  0  0  0  0  0  0  0  0  0  0
   11.0220    2.1480   25.9280 O   0  0  0  0  0  0  0  0  0  0  0  0
    8.3930   -0.1250   27.3700 O   0  0  0  0  0  0  0  0  0  0  0  0
    9.2880    1.0640   21.2510 O   0  0  0  0  0  0  0  0  0  0  0  0
    3.5910    2.4200   25.3430 O   0  0  0  0  0  0  0  0  0  0  0  0
    5.6810    2.4820   24.1900 O   0  0  0  0  0  0  0  0  0  0  0  0
    6.8910    0.1760   17.7610 N   0  0  0  0  0  0  0  0  0  0  0  0
   10.5350    1.3250   25.1510 C   0  0  0  0  0  0  0  0  0  0  0  0
    8.1490    1.0770   27.3360 C   0  0  0  0  0  0  0  0  0  0  0  0
    8.7750    0.1340   21.8110 C   0  0  0  0  0  0  0  0  0  0  0  0
    7.5250   -0.2580   18.8640 C   0  0  0  0  0  3  0  0  0  0  0  0
   13.4920   -0.1210   23.4420 C   0  0  0  0  0  3  0  0  0  0  0  0
   12.7400    0.6500   24.2790 C   0  0  0  0  0  3  0  0  0  0  0  0
   11.5230   -1.0760   22.4620 C   0  0  0  0  0  3  0  0  0  0  0  0
    3.5310    2.0960   20.5380 C   0  0  0  0  0  3  0  0  0  0  0  0
   12.8760   -0.9810   22.5500 C   0  0  0  0  0  0  0  0  0  0  0  0
   11.3520    0.5560   24.2190 C   0  0  0  0  0  0  0  0  0  0  0  0
    4.1660    1.6840   21.6940 C   0  0  0  0  0  0  0  0  0  0  0  0
   10.7330   -0.2960   23.2930 C   0  0  0  0  0  0  0  0  0  0  0  0
    5.7470    0.8350   17.8600 C   0  0  0  0  0  3  0  0  0  0  0  0
    4.0370    1.8240   19.2630 C   0  0  0  0  0  3  0  0  0  0  0  0
    5.3330    0.9870   21.5780 C   0  0  0  0  0  3  0  0  0  0  0  0
    7.0540   -0.0380   20.1500 C   0  0  0  0  0  0  0  0  0  0  0  0
    5.1990    1.1190   19.1280 C   0  0  0  0  0  0  0  0  0  0  0  0
    5.8590    0.6900   20.3010 C   0  0  0  0  0  0  0  0  0  0  0  0
    7.7160   -0.5270   21.3180 N   0  0  0  0  0  2  0  0  0  0  0  0
    7.7440    1.7360   28.3580 N   0  0  0  0  0  2  0  0  0  0  0  0
    9.1700    1.1340   25.1280 N   0  0  0  0  0  0  0  0  0  0  0  0
    3.5750    1.9460   22.8920 N   0  0  0  0  0  2  0  0  0  0  0  0
    7.5700    1.0440   29.6370 C   0  0  0  0  0  1  0  0  0  0  0  0
    8.3610    1.8830   26.0930 C   0  0  0  0  0  2  0  0  0  0  0  0
    8.4840    0.2320   24.2170 C   0  0  0  0  0  2  0  0  0  0  0  0
    4.5490    0.1610   24.7010 C   0  0  0  0  0  1  0  0  0  0  0  0
    9.2730   -0.4050   23.1530 C   0  0  0  0  0  3  0  0  0  0  0  0
    4.3950    1.8170   24.3130 S   0  0  2  0  0  6  0  0  0  0  0  0
  2  8  2  0
  8 28  1  0
  8 17  1  0
 28 31  1  0
 28 32  1  0
 31  9  1  0
  9  3  2  0
  9 27  1  0
 27 30  1  0
 17 13  2  0
 17 19  1  0
 13 12  1  0
 12 16  2  0
 16  1  1  0
 16 14  1  0
 14 19  2  0
 19 34  1  0
 34 32  1  0
 34 10  1  0
 10  4  2  0
 10 26  1  0
 26 23  1  0
 23 25  2  0
 23 11  1  0
 25 24  1  0
 25 22  1  0
 24 20  2  0
 24 21  1  0
 20  7  1  0
  7 11  2  0
 22 18  2  0
 18 15  1  0
 18 29  1  0
 15 21  2  0
 29 35  1  0
 35  5  2  0
 35  6  2  0
 35 33  1  1
M  END
