predicted
     RDKit          3D

 28 31  0  0  0  0  0  0  0  0999 V2000
    8.4210    1.2270   21.1170 O   0  0  0  0  0  0  0  0  0  0  0  0
    6.2460    0.8250   17.5540 N   0  0  0  0  0  0  0  0  0  0  0  0
    7.1050    0.0380   18.1480 N   0  0  0  0  0  0  0  0  0  0  0  0
    8.1950    0.0550   21.3590 C   0  0  0  0  0  0  0  0  0  0  0  0
   12.5300    2.1180   23.3190 C   0  0  0  0  0  3  0  0  0  0  0  0
   13.3770    1.0080   23.1470 C   0  0  0  0  0  3  0  0  0  0  0  0
   11.1480    1.9300   23.4820 C   0  0  0  0  0  3  0  0  0  0  0  0
   11.5070   -0.4280   23.2680 C   0  0  0  0  0  3  0  0  0  0  0  0
    3.5000    2.3290   19.5230 C   0  0  0  0  0  3  0  0  0  0  0  0
    3.8540    1.7830   20.7240 C   0  0  0  0  0  3  0  0  0  0  0  0
   12.8560   -0.2730   23.1270 C   0  0  0  0  0  0  0  0  0  0  0  0
   10.6520    0.6590   23.4400 C   0  0  0  0  0  0  0  0  0  0  0  0
    4.2350    2.0580   18.3700 C   0  0  0  0  0  3  0  0  0  0  0  0
    4.9720    0.9500   20.8360 C   0  0  0  0  0  3  0  0  0  0  0  0
    5.3440    1.2220   18.4370 C   0  0  0  0  0  0  0  0  0  0  0  0
    5.6940    0.6670   19.6850 C   0  0  0  0  0  0  0  0  0  0  0  0
    8.5980   -0.4340   22.6020 N   0  0  0  0  0  0  0  0  0  0  0  0
    6.7940   -0.0770   19.4280 N   0  0  0  0  0  0  0  0  0  0  0  0
   13.7340   -1.4570   22.9220 C   0  0  2  0  0  0  0  0  0  0  0  0
    7.5560   -0.8740   20.4140 C   0  0  0  0  0  2  0  0  0  0  0  0
    9.2610   -2.5910   23.8000 C   0  0  0  0  0  2  0  0  0  0  0  0
    7.7780   -2.4060   24.0350 C   0  0  0  0  0  2  0  0  0  0  0  0
    8.4530   -1.9010   22.8020 C   0  0  0  0  0  3  0  0  0  0  0  0
    8.6230    0.6200   24.9030 C   0  0  0  0  0  1  0  0  0  0  0  0
    9.1420    0.4970   23.5570 C   0  0  0  0  0  3  0  0  0  0  0  0
   13.5550   -2.3530   23.8900 F   0  0  0  0  0  0  0  0  0  0  0  0
   14.9780   -1.1200   22.9670 F   0  0  0  0  0  0  0  0  0  0  0  0
   13.4830   -2.0220   21.7390 F   0  0  0  0  0  0  0  0  0  0  0  0
 19 26  1  6
 19 27  1  0
 19 28  1  0
 19 11  1  0
 11  6  2  0
 11  8  1  0
  6  5  1  0
  5  7  2  0
  7 12  1  0
  8 12  2  0
 12 25  1  0
 25 24  1  0
 25 17  1  0
 17 23  1  0
 17  4  1  0
 23 21  1  0
 23 22  1  0
 21 22  1  0
  4  1  2  0
  4 20  1  0
 20 18  1  0
 18 16  1  0
 18  3  1  0
 16 15  2  0
 16 14  1  0
 15  2  1  0
 15 13  1  0
  2  3  2  0
 14 10  2  0
 10  9  1  0
  9 13  2  0
M  END
