predicted
     RDKit          3D

 20 21  0  0  0  0  0  0  0  0999 V2000
    5.9610   -5.1180   19.7530 O   0  0  0  0  0  0  0  0  0  0  0  0
    8.6240   -2.3460   25.9410 O   0  0  0  0  0  0  0  0  0  0  0  0
    9.1490   -4.6900   25.8370 O   0  0  0  0  0  0  0  0  0  0  0  0
    6.5550   -4.1490   20.2190 C   0  0  0  0  0  0  0  0  0  0  0  0
    4.7680   -3.0110   27.6130 C   0  0  0  0  0  3  0  0  0  0  0  0
    5.5610   -5.1130   28.3360 C   0  0  0  0  0  3  0  0  0  0  0  0
    5.8470   -2.8950   26.7890 C   0  0  0  0  0  3  0  0  0  0  0  0
    4.6190   -4.1360   28.3920 C   0  0  0  0  0  0  0  0  0  0  0  0
    6.6480   -4.9890   27.5200 C   0  0  0  0  0  0  0  0  0  0  0  0
    6.8090   -3.8880   26.7460 C   0  0  0  0  0  0  0  0  0  0  0  0
    6.6470   -3.9890   21.5600 N   0  0  0  0  0  0  0  0  0  0  0  0
    7.5480   -3.8280   24.1610 N   0  0  0  0  0  0  0  0  0  0  0  0
    7.1180   -3.1180   19.2930 C   0  0  0  0  0  1  0  0  0  0  0  0
    3.4560   -4.2820   29.2850 C   0  0  0  0  0  1  0  0  0  0  0  0
    7.6370   -6.1150   27.4920 C   0  0  0  0  0  1  0  0  0  0  0  0
    7.1060   -2.6920   22.0860 C   0  0  0  0  0  2  0  0  0  0  0  0
    6.2690   -5.0380   22.5130 C   0  0  0  0  0  2  0  0  0  0  0  0
    7.8710   -2.7670   23.2830 C   0  0  0  0  0  2  0  0  0  0  0  0
    7.0750   -5.1020   23.7380 C   0  0  0  0  0  2  0  0  0  0  0  0
    8.1110   -3.6860   25.6980 S   0  0  1  0  0  6  0  0  0  0  0  0
 12 18  1  0
 12 19  1  0
 20 12  1  1
 14  8  1  0
  2 20  2  0
  8  5  2  0
  8  6  1  0
 16 18  1  0
 16 11  1  0
  4 13  1  0
  4 11  1  0
  4  1  2  0
  5  7  1  0
  7 10  2  0
 10  9  1  0
 10 20  1  0
  9 15  1  0
  9  6  2  0
 19 17  1  0
 17 11  1  0
  3 20  2  0
M  END
