predicted
     RDKit          3D

 15 16  0  0  0  0  0  0  0  0999 V2000
    9.2300    0.9890   22.3830 O   0  0  0  0  0  0  0  0  0  0  0  0
    7.3150    0.1510   18.2290 N   0  0  0  0  0  0  0  0  0  0  0  0
    6.5560    1.0760   17.5650 O   0  0  0  0  0  0  0  0  0  0  0  0
    9.0520   -0.0640   21.8300 C   0  0  0  0  0  0  0  0  0  0  0  0
    6.6930   -0.1680   19.3330 C   0  0  0  0  0  0  0  0  0  0  0  0
    5.4480    1.3260   18.2800 C   0  0  0  0  0  0  0  0  0  0  0  0
    5.5010    0.5630   19.4250 C   0  0  0  0  0  3  0  0  0  0  0  0
    7.7340   -0.4560   21.5570 N   0  0  0  0  0  0  0  0  0  0  0  0
   10.0720   -0.9080   21.5140 N   0  0  0  0  0  2  0  0  0  0  0  0
    4.4340    2.3360   17.8600 C   0  0  0  0  0  1  0  0  0  0  0  0
    6.7200    0.0930   22.4350 C   0  0  0  0  0  1  0  0  0  0  0  0
    7.2950   -1.1850   20.4280 C   0  0  0  0  0  2  0  0  0  0  0  0
   12.1250   -0.9240   23.0280 C   0  0  0  0  0  2  0  0  0  0  0  0
   12.5310   -1.4600   21.7180 C   0  0  0  0  0  2  0  0  0  0  0  0
   11.4840   -0.3690   21.8190 C   0  0  0  0  0  3  0  0  0  0  0  0
 11  8  1  0
 12  5  1  0
 12  8  1  0
  5  7  1  0
  5  2  2  0
  7  6  2  0
  6 10  1  0
  6  3  1  0
  4  8  1  0
  4  9  1  0
  4  1  2  0
 15 13  1  0
 15 14  1  0
 15  9  1  0
 13 14  1  0
  2  3  1  0
M  END
