predicted
     RDKit          3D

 18 19  0  0  0  0  0  0  0  0999 V2000
    3.6320    3.2890   17.3870 N   0  0  0  0  0  0  0  0  0  0  0  0
    8.1240   -0.2780   23.7350 O   0  0  0  0  0  0  0  0  0  0  0  0
    4.0690    2.5060   18.1450 C   0  0  0  0  0  0  0  0  0  0  0  0
   12.9250   -0.7450   22.6620 O   0  0  0  0  0  0  0  0  0  0  0  0
    8.6710   -0.7220   22.8000 C   0  0  0  0  0  0  0  0  0  0  0  0
    4.5920    1.7830   20.4310 C   0  0  0  0  0  3  0  0  0  0  0  0
    5.3110    0.4610   18.5510 C   0  0  0  0  0  3  0  0  0  0  0  0
    5.1690    0.8600   21.2860 C   0  0  0  0  0  3  0  0  0  0  0  0
    5.8820   -0.4500   19.4200 C   0  0  0  0  0  3  0  0  0  0  0  0
    4.6470    1.5740   19.0530 C   0  0  0  0  0  0  0  0  0  0  0  0
    5.8130   -0.2870   20.8080 C   0  0  0  0  0  0  0  0  0  0  0  0
    7.8980   -1.2930   21.7610 N   0  0  0  0  0  2  0  0  0  0  0  0
   10.0520   -0.6550   22.7500 N   0  0  0  0  0  0  0  0  0  0  0  0
    6.4320   -1.3580   21.7530 C   0  0  0  0  0  2  0  0  0  0  0  0
   12.1970   -1.3310   21.6530 C   0  0  0  0  0  2  0  0  0  0  0  0
   12.2550   -0.6770   23.8840 C   0  0  0  0  0  2  0  0  0  0  0  0
   10.7800   -0.8760   21.5280 C   0  0  0  0  0  2  0  0  0  0  0  0
   10.8340   -0.2480   23.8850 C   0  0  0  0  0  2  0  0  0  0  0  0
 12  5  1  0
 12 14  1  0
  5  2  2  0
  5 13  1  0
 14 11  1  0
 16 18  1  0
 16  4  1  0
 15 17  1  0
 15  4  1  0
 17 13  1  0
 11  8  2  0
 11  9  1  0
  8  6  1  0
  6 10  2  0
 10  3  1  0
 10  7  1  0
  3  1  3  0
  7  9  2  0
 18 13  1  0
M  END
