predicted
     RDKit          3D

 25 26  0  0  0  0  0  0  0  0999 V2000
    7.7760   -6.7770   28.1690 N   0  0  0  0  0  0  0  0  0  0  0  0
    9.2100    1.1270   20.8640 O   0  0  0  0  0  0  0  0  0  0  0  0
    8.8060   -6.0990   27.5510 C   0  0  0  0  0  0  0  0  0  0  0  0
    6.5150    0.2610   17.5880 N   0  0  0  0  0  0  0  0  0  0  0  0
    8.4940    0.4980   21.6220 C   0  0  0  0  0  0  0  0  0  0  0  0
    5.3880    0.9230   17.7090 C   0  0  0  0  0  3  0  0  0  0  0  0
    7.1800   -0.1630   18.6690 C   0  0  0  0  0  3  0  0  0  0  0  0
    4.8270    1.2050   18.9350 C   0  0  0  0  0  3  0  0  0  0  0  0
    9.0060   -2.6210   22.6570 C   0  0  0  0  0  3  0  0  0  0  0  0
    6.8900   -2.5880   23.7220 C   0  0  0  0  0  3  0  0  0  0  0  0
    9.5060   -3.3220   23.6940 C   0  0  0  0  0  3  0  0  0  0  0  0
    7.3980   -3.2680   24.7550 C   0  0  0  0  0  3  0  0  0  0  0  0
    5.5180    0.7640   20.0570 C   0  0  0  0  0  3  0  0  0  0  0  0
    7.6900   -2.2260   22.6660 C   0  0  0  0  0  0  0  0  0  0  0  0
    8.7110   -3.6760   24.7540 C   0  0  0  0  0  0  0  0  0  0  0  0
    6.6910    0.0610   19.9290 C   0  0  0  0  0  0  0  0  0  0  0  0
    8.5870    0.6350   22.9070 N   0  0  0  0  0  2  0  0  0  0  0  0
    7.0750   -1.5590   21.6000 N   0  0  0  0  0  2  0  0  0  0  0  0
    9.4690    1.0950   25.1160 C   0  0  0  0  0  1  0  0  0  0  0  0
   11.0370    0.7750   23.2370 C   0  0  0  0  0  1  0  0  0  0  0  0
    9.5600    2.8400   23.3530 C   0  0  0  0  0  1  0  0  0  0  0  0
    8.4010   -4.8280   26.9080 C   0  0  0  0  0  2  0  0  0  0  0  0
    9.3000   -4.4440   25.8720 C   0  0  0  0  0  2  0  0  0  0  0  0
    9.6750    1.3420   23.6170 C   0  0  1  0  0  0  0  0  0  0  0  0
    7.4440   -0.3960   21.1010 C   0  0  0  0  0  3  0  0  0  0  0  0
 18 25  1  0
 18 14  1  0
 25 16  1  0
 25  5  1  0
 16 13  2  0
 16  7  1  0
 13  8  1  0
  8  6  2  0
  6  4  1  0
  4  7  2  0
  5  2  2  0
  5 17  1  0
 17 24  1  0
 24 19  1  6
 24 20  1  0
 24 21  1  0
 14  9  2  0
 14 10  1  0
  9 11  1  0
 11 15  2  0
 15 12  1  0
 15 23  1  0
 12 10  2  0
 23 22  1  0
 22  3  1  0
  3  1  3  0
M  END
