predicted
     RDKit          3D

 15 16  0  0  0  0  0  0  0  0999 V2000
    6.2190   -4.0560   19.3480 O   0  0  0  0  0  1  0  0  0  0  0  0
    6.2340   -2.5860   21.4960 O   0  0  0  0  0  0  0  0  0  0  0  0
   13.3730   -0.4140   22.7920 C   0  0  0  0  0  3  0  0  0  0  0  0
   12.6280    0.2980   23.7360 C   0  0  0  0  0  3  0  0  0  0  0  0
   12.8430   -1.5430   22.2160 C   0  0  0  0  0  3  0  0  0  0  0  0
   11.3740   -0.1440   24.0870 C   0  0  0  0  0  3  0  0  0  0  0  0
   11.5810   -1.9630   22.5750 C   0  0  0  0  0  3  0  0  0  0  0  0
   10.8260   -1.2830   23.5110 C   0  0  0  0  0  0  0  0  0  0  0  0
    8.4470   -2.1760   23.1450 N   0  0  0  0  0  0  0  0  0  0  0  0
    9.4630   -1.7550   23.9620 C   0  0  0  0  0  2  0  0  0  0  0  0
    6.0380   -2.1320   22.8090 C   0  0  0  0  0  2  0  0  0  0  0  0
    7.2370   -1.4170   23.3440 C   0  0  0  0  0  2  0  0  0  0  0  0
    7.4660   -3.7830   19.8350 C   0  0  0  0  0  2  0  0  0  0  0  0
    8.6230   -2.5880   21.7900 C   0  0  0  0  0  2  0  0  0  0  0  0
    7.4180   -3.3730   21.2960 C   0  0  0  0  0  3  0  0  0  0  0  0
 13 15  1  0
 13  1  1  0
 15 14  1  0
 15  2  1  0
 14  9  1  0
 10  8  1  0
 10  9  1  0
  8  6  2  0
  8  7  1  0
  6  4  1  0
  4  3  2  0
  3  5  1  0
  5  7  2  0
 12 11  1  0
 12  9  1  0
 11  2  1  0
M  END
