predicted
     RDKit          3D

 31 34  0  0  0  0  0  0  0  0999 V2000
   13.7030   -1.9400   21.5920 Cl  0  0  0  0  0  0  0  0  0  0  0  0
    9.0730    1.2680   21.3530 O   0  0  0  0  0  0  0  0  0  0  0  0
    3.3870    3.1980   25.1910 O   0  0  0  0  0  0  0  0  0  0  0  0
    5.4080    2.9120   23.9850 O   0  0  0  0  0  0  0  0  0  0  0  0
    6.6270    0.2090   17.9070 N   0  0  0  0  0  0  0  0  0  0  0  0
   10.6460    1.7500   24.9150 O   0  0  0  0  0  0  0  0  0  0  0  0
    8.7050   -1.5020   23.5130 O   0  0  0  0  0  0  0  0  0  0  0  0
    8.5780    0.3290   21.9550 C   0  0  0  0  0  0  0  0  0  0  0  0
    7.2690   -0.1760   19.0330 C   0  0  0  0  0  3  0  0  0  0  0  0
   13.3850    0.1190   23.2680 C   0  0  0  0  0  3  0  0  0  0  0  0
   12.6670    0.9930   24.0360 C   0  0  0  0  0  3  0  0  0  0  0  0
   11.3850   -0.9610   22.4960 C   0  0  0  0  0  3  0  0  0  0  0  0
    3.1670    2.1180   20.6270 C   0  0  0  0  0  3  0  0  0  0  0  0
   12.7550   -0.8680   22.4980 C   0  0  0  0  0  0  0  0  0  0  0  0
   11.3030    0.9130   24.0420 C   0  0  0  0  0  0  0  0  0  0  0  0
    3.8230    1.7670   21.7750 C   0  0  0  0  0  0  0  0  0  0  0  0
   10.6130   -0.1000   23.3000 C   0  0  0  0  0  0  0  0  0  0  0  0
    5.4440    0.8410   17.9880 C   0  0  0  0  0  3  0  0  0  0  0  0
    3.6810    1.8260   19.3610 C   0  0  0  0  0  3  0  0  0  0  0  0
    5.0090    1.0850   21.6980 C   0  0  0  0  0  3  0  0  0  0  0  0
    6.7790    0.0860   20.3100 C   0  0  0  0  0  0  0  0  0  0  0  0
    4.8730    1.1570   19.2430 C   0  0  0  0  0  0  0  0  0  0  0  0
    5.5580    0.7650   20.4350 C   0  0  0  0  0  0  0  0  0  0  0  0
    7.4820   -0.3090   21.4980 N   0  0  0  0  0  2  0  0  0  0  0  0
    3.2380    2.0610   22.9800 N   0  0  0  0  0  2  0  0  0  0  0  0
    9.2130   -2.1710   24.6300 C   0  0  0  0  0  1  0  0  0  0  0  0
    9.2420    1.9720   24.7020 C   0  0  0  0  0  2  0  0  0  0  0  0
    8.4920    0.6750   24.4430 C   0  0  0  0  0  2  0  0  0  0  0  0
    4.3230    0.7840   25.1480 C   0  0  0  0  0  1  0  0  0  0  0  0
    9.1210   -0.1560   23.2890 C   0  0  2  0  0  0  0  0  0  0  0  0
    4.1440    2.3390   24.3290 S   0  0  2  0  0  6  0  0  0  0  0  0
  3 31  2  0
 31  4  2  0
 31 29  1  6
 31 25  1  0
 25 16  1  0
 16 13  2  0
 16 20  1  0
 13 19  1  0
 19 22  2  0
 20 23  2  0
 23 22  1  0
 23 21  1  0
 22 18  1  0
 18  5  2  0
  5  9  1  0
  9 21  2  0
 21 24  1  0
 24  8  1  0
  8  2  2  0
  8 30  1  0
 30  7  1  6
 30 17  1  0
 30 28  1  0
  7 26  1  0
 17 12  2  0
 17 15  1  0
 12 14  1  0
 14  1  1  0
 14 10  2  0
 10 11  1  0
 11 15  2  0
 15  6  1  0
  6 27  1  0
 27 28  1  0
M  END
