predicted
     RDKit          3D

 24 27  0  0  0  0  0  0  0  0999 V2000
   13.8690   -0.6080   22.5100 Cl  0  0  0  0  0  0  0  0  0  0  0  0
    8.9970    0.8370   20.6580 O   0  0  0  0  0  0  0  0  0  0  0  0
    6.4400    1.2160   17.2630 N   0  0  0  0  0  0  0  0  0  0  0  0
    7.2240    0.4470   18.0230 N   0  0  0  0  0  0  0  0  0  0  0  0
    8.5330   -2.2930   23.8330 O   0  0  0  0  0  0  0  0  0  0  0  0
    8.2570   -0.0660   20.9830 C   0  0  0  0  0  0  0  0  0  0  0  0
    2.8470    1.5080   22.3880 C   0  0  0  0  0  3  0  0  0  0  0  0
    4.0780    1.0180   22.6130 C   0  0  0  0  0  3  0  0  0  0  0  0
    2.5060    1.8720   21.1020 C   0  0  0  0  0  3  0  0  0  0  0  0
   12.1090   -2.0020   23.9780 C   0  0  0  0  0  3  0  0  0  0  0  0
   10.8780   -2.4370   24.3540 C   0  0  0  0  0  3  0  0  0  0  0  0
    4.9580    0.8690   21.5670 C   0  0  0  0  0  3  0  0  0  0  0  0
    3.4110    1.7260   20.0730 C   0  0  0  0  0  3  0  0  0  0  0  0
   11.1930   -0.7350   22.2110 C   0  0  0  0  0  3  0  0  0  0  0  0
   12.2680   -1.1570   22.9270 C   0  0  0  0  0  0  0  0  0  0  0  0
    9.8080   -2.0100   23.6400 C   0  0  0  0  0  0  0  0  0  0  0  0
    4.6440    1.2130   20.2840 C   0  0  0  0  0  0  0  0  0  0  0  0
    9.9350   -1.1590   22.5680 C   0  0  0  0  0  0  0  0  0  0  0  0
    5.4380    1.5570   17.9820 C   0  0  0  0  0  3  0  0  0  0  0  0
    6.6640    0.3320   19.2260 C   0  0  0  0  0  0  0  0  0  0  0  0
    7.1390   -0.3990   20.3510 N   0  0  0  0  0  2  0  0  0  0  0  0
    5.5590    1.0510   19.2170 N   0  0  0  0  0  0  0  0  0  0  0  0
    7.7820   -1.6440   22.9100 C   0  0  0  0  0  2  0  0  0  0  0  0
    8.6550   -0.9430   22.0970 C   0  0  0  0  0  3  0  0  0  0  0  0
  2  6  2  0
  6 24  1  0
  6 21  1  0
 24 23  1  0
 24 18  1  0
 23  5  1  0
  5 16  1  0
 18 16  2  0
 18 14  1  0
 16 11  1  0
 11 10  2  0
 10 15  1  0
 14 15  2  0
 15  1  1  0
 21 20  1  0
 20 22  1  0
 20  4  2  0
 22 19  1  0
 22 17  1  0
 19  3  2  0
  3  4  1  0
 17 12  2  0
 17 13  1  0
 12  8  1  0
  8  7  2  0
  7  9  1  0
  9 13  2  0
M  END
