predicted
     RDKit          3D

 31 35  0  0  0  0  0  0  0  0999 V2000
   13.8420   -2.0340   21.6340 Cl  0  0  0  0  0  0  0  0  0  0  0  0
    6.8910    3.3100   23.1070 O   0  0  0  0  0  0  0  0  0  0  0  0
    9.0010    1.3920   21.3980 O   0  0  0  0  0  0  0  0  0  0  0  0
    6.5770    0.0930   17.9220 N   0  0  0  0  0  0  0  0  0  0  0  0
    7.6400    3.7110   23.9310 C   0  0  0  0  0  0  0  0  0  0  0  0
    8.6230    0.3270   21.8900 C   0  0  0  0  0  0  0  0  0  0  0  0
    7.2650   -0.3280   18.9620 C   0  0  0  0  0  3  0  0  0  0  0  0
    5.4380    0.7790   18.0970 C   0  0  0  0  0  3  0  0  0  0  0  0
   13.4290    0.1370   23.1220 C   0  0  0  0  0  3  0  0  0  0  0  0
   12.6630    1.0150   23.8140 C   0  0  0  0  0  3  0  0  0  0  0  0
   11.4390   -1.0560   22.4370 C   0  0  0  0  0  3  0  0  0  0  0  0
   12.8120   -0.9110   22.4320 C   0  0  0  0  0  0  0  0  0  0  0  0
    6.8690   -0.0390   20.2700 C   0  0  0  0  0  0  0  0  0  0  0  0
    4.9690    1.1110   19.3850 C   0  0  0  0  0  0  0  0  0  0  0  0
    5.6850    0.6950   20.5110 C   0  0  0  0  0  0  0  0  0  0  0  0
   11.2790    0.8780   23.8170 C   0  0  0  0  0  0  0  0  0  0  0  0
   10.6520   -0.2030   23.1810 C   0  0  0  0  0  0  0  0  0  0  0  0
    8.1290    4.9040   23.8450 N   0  0  0  0  0  2  0  0  0  0  0  0
    7.6450   -0.4340   21.3520 N   0  0  0  0  0  0  0  0  0  0  0  0
    7.6730    5.8200   22.8350 C   0  0  0  0  0  1  0  0  0  0  0  0
    3.8150    1.8370   19.5730 C   0  0  0  0  0  2  0  0  0  0  0  0
    5.2140    1.0200   21.8050 C   0  0  0  0  0  2  0  0  0  0  0  0
    7.5270   -1.7060   22.0380 C   0  0  0  0  0  2  0  0  0  0  0  0
    3.3650    2.1500   20.8480 C   0  0  0  0  0  2  0  0  0  0  0  0
    4.0720    1.7280   21.9680 C   0  0  0  0  0  2  0  0  0  0  0  0
    8.6430   -1.6770   23.1260 C   0  0  0  0  0  2  0  0  0  0  0  0
    8.2120    2.7720   24.9890 C   0  0  0  0  0  2  0  0  0  0  0  0
   10.4750    1.8830   24.6350 C   0  0  0  0  0  2  0  0  0  0  0  0
    8.5290    0.4650   24.3490 C   0  0  0  0  0  2  0  0  0  0  0  0
    9.1670   -0.2900   23.1500 C   0  0  2  0  0  0  0  0  0  0  0  0
    9.0150    1.8540   24.2720 N   0  0  0  0  0  3  0  0  0  0  0  0
  3  6  2  0
  6 19  1  0
  6 30  1  0
 19 13  1  0
 19 23  1  0
 13 15  1  0
 13  7  2  0
 15 22  1  0
 15 14  2  0
 22 25  1  0
 25 24  1  0
 24 21  1  0
 21 14  1  0
 14  8  1  0
  8  4  2  0
  4  7  1  0
 23 26  1  0
 30 26  1  1
 30 17  1  0
 30 29  1  0
 17 11  2  0
 17 16  1  0
 11 12  1  0
 12  1  1  0
 12  9  2  0
  9 10  1  0
 10 16  2  0
 16 28  1  0
 28 31  1  0
 29 31  1  0
 31 27  1  0
 27  5  1  0
  5  2  2  0
  5 18  1  0
 18 20  1  0
M  CHG  1  31   1
M  END
