predicted
     RDKit          3D

 28 31  0  0  0  0  0  0  0  0999 V2000
   13.9080   -0.9580   20.6500 Cl  0  0  0  0  0  0  0  0  0  0  0  0
    7.9540   -2.0140   21.8970 O   0  0  0  0  0  0  0  0  0  0  0  0
    9.0720    1.8230   20.9670 O   0  0  0  0  0  0  0  0  0  0  0  0
    6.7540    1.3130   17.4280 N   0  0  0  0  0  0  0  0  0  0  0  0
   10.4890    0.3420   25.1900 O   0  0  0  0  0  0  0  0  0  0  0  0
    7.4950   -1.3560   21.0360 C   0  0  0  0  0  0  0  0  0  0  0  0
    8.7450    0.7390   21.4210 C   0  0  0  0  0  0  0  0  0  0  0  0
    7.4290    0.6920   18.3890 C   0  0  0  0  0  3  0  0  0  0  0  0
   13.3960   -0.5630   23.2600 C   0  0  0  0  0  3  0  0  0  0  0  0
   12.5930   -0.2700   24.3140 C   0  0  0  0  0  3  0  0  0  0  0  0
   11.5370   -0.3300   21.7480 C   0  0  0  0  0  3  0  0  0  0  0  0
    3.4310    2.5100   20.5840 C   0  0  0  0  0  3  0  0  0  0  0  0
    4.1150    1.8830   21.5930 C   0  0  0  0  0  3  0  0  0  0  0  0
   12.8630   -0.5890   21.9660 C   0  0  0  0  0  0  0  0  0  0  0  0
   11.2480   -0.0100   24.1020 C   0  0  0  0  0  0  0  0  0  0  0  0
   10.6970    0.0210   22.8070 C   0  0  0  0  0  0  0  0  0  0  0  0
    5.6040    1.8800   17.6920 C   0  0  0  0  0  3  0  0  0  0  0  0
    3.9130    2.5170   19.2880 C   0  0  0  0  0  3  0  0  0  0  0  0
    5.2800    1.2610   21.3340 C   0  0  0  0  0  3  0  0  0  0  0  0
    7.0310    0.6450   19.7050 C   0  0  0  0  0  0  0  0  0  0  0  0
    5.0970    1.8950   18.9970 C   0  0  0  0  0  0  0  0  0  0  0  0
    5.7960    1.2560   20.0120 C   0  0  0  0  0  0  0  0  0  0  0  0
    7.7730   -0.0150   20.7500 N   0  0  0  0  0  0  0  0  0  0  0  0
    7.4110   -3.1530   19.2960 C   0  0  0  0  0  1  0  0  0  0  0  0
    9.0620    0.4340   25.1130 C   0  0  0  0  0  2  0  0  0  0  0  0
    6.6150   -2.1610   20.1370 C   0  0  0  0  0  2  0  0  0  0  0  0
    8.5560    0.8640   23.8600 C   0  0  0  0  0  2  0  0  0  0  0  0
    9.2690    0.2960   22.6860 C   0  0  0  0  0  3  0  0  0  0  0  0
  1 14  1  0
 14  9  2  0
 14 11  1  0
  9 10  1  0
 10 15  2  0
 15  5  1  0
 15 16  1  0
  5 25  1  0
 25 27  1  0
 27 28  1  0
 11 16  2  0
 16 28  1  0
 28  7  1  0
  7  3  2  0
  7 23  1  0
 23  6  1  0
 23 20  1  0
  6  2  2  0
  6 26  1  0
 26 24  1  0
 20  8  2  0
 20 22  1  0
  8  4  1  0
  4 17  2  0
 17 21  1  0
 21 22  2  0
 21 18  1  0
 22 19  1  0
 18 12  2  0
 12 13  1  0
 13 19  2  0
M  END
