predicted
     RDKit          3D

 16 17  0  0  0  0  0  0  0  0999 V2000
   13.6270   -1.7560   21.7270 Cl  0  0  0  0  0  0  0  0  0  0  0  0
    6.5470    0.3720   17.5970 N   0  0  0  0  0  0  0  0  0  0  0  0
    5.4230    0.8080   19.4440 N   0  0  0  0  0  0  0  0  0  0  0  0
    8.4960    1.0260   21.2180 O   0  0  0  0  0  1  0  0  0  0  0  0
    5.5120    1.0610   18.1410 C   0  0  0  0  0  3  0  0  0  0  0  0
   11.6100    0.7780   24.1100 C   0  0  0  0  0  3  0  0  0  0  0  0
   12.6500    0.1170   23.4450 C   0  0  0  0  0  3  0  0  0  0  0  0
   10.3060    0.4550   23.8830 C   0  0  0  0  0  3  0  0  0  0  0  0
   11.0510   -1.2220   22.3080 C   0  0  0  0  0  3  0  0  0  0  0  0
   12.3400   -0.8810   22.5370 C   0  0  0  0  0  0  0  0  0  0  0  0
   10.0250   -0.5630   22.9630 C   0  0  0  0  0  0  0  0  0  0  0  0
    7.0980   -0.3340   18.5840 C   0  0  0  0  0  3  0  0  0  0  0  0
    6.4130   -0.0510   19.7070 N   0  0  0  0  0  0  0  0  0  0  0  0
    8.5680   -0.8850   22.7140 C   0  0  0  0  0  2  0  0  0  0  0  0
    6.6800   -0.5750   21.0760 C   0  0  0  0  0  2  0  0  0  0  0  0
    8.0490   -0.2060   21.4640 C   0  0  0  0  0  3  0  0  0  0  0  0
  1 10  1  0
 10  7  2  0
 10  9  1  0
  7  6  1  0
  6  8  2  0
  8 11  1  0
  9 11  2  0
 11 14  1  0
 14 16  1  0
 16  4  1  0
 16 15  1  0
 15 13  1  0
 13  3  1  0
 13 12  1  0
  3  5  2  0
  5  2  1  0
  2 12  2  0
M  END
