predicted
     RDKit          3D

 17 19  0  0  0  0  0  0  0  0999 V2000
    9.0300    1.1770   20.9760 O   0  0  0  0  0  0  0  0  0  0  0  0
    6.5720    0.3520   17.6390 N   0  0  0  0  0  0  0  0  0  0  0  0
    8.5610    0.2580   21.5760 C   0  0  0  0  0  0  0  0  0  0  0  0
    5.4050    0.9350   17.7430 C   0  0  0  0  0  3  0  0  0  0  0  0
    7.2430   -0.0800   18.7380 C   0  0  0  0  0  3  0  0  0  0  0  0
    4.8460    1.1750   18.9850 C   0  0  0  0  0  3  0  0  0  0  0  0
    6.7330    0.1070   19.9930 C   0  0  0  0  0  0  0  0  0  0  0  0
    5.5040    0.7340   20.1060 C   0  0  0  0  0  0  0  0  0  0  0  0
    7.4410   -0.3610   21.1450 N   0  0  0  0  0  2  0  0  0  0  0  0
    4.9010    0.9870   21.4600 C   0  0  0  0  0  1  0  0  0  0  0  0
    9.1170   -0.3030   22.8940 C   0  0  0  0  0  2  0  0  0  0  0  0
   11.1930   -1.7070   22.3480 C   0  0  0  0  0  2  0  0  0  0  0  0
   11.5750    0.3610   23.2030 C   0  0  0  0  0  2  0  0  0  0  0  0
   13.6920   -1.2120   23.0390 C   0  0  0  0  0  2  0  0  0  0  0  0
   10.5960   -0.5270   22.7840 C   0  0  0  0  0  3  0  0  0  0  0  0
   12.5970   -1.4820   22.2960 C   0  0  0  0  0  3  0  0  0  0  0  0
   12.8390   -0.1580   22.8490 C   0  0  0  0  0  3  0  0  0  0  0  0
  2  5  2  0
  2  4  1  0
  8  6  1  0
  8  7  2  0
  8 10  1  0
 14 17  1  0
 14 16  1  0
 15 12  1  0
 15 13  1  0
 15 11  1  0
  6  4  2  0
  3  9  1  0
  3  1  2  0
  3 11  1  0
  7  5  1  0
  7  9  1  0
 12 16  1  0
 17 13  1  0
 17 16  1  0
M  END
