predicted
     RDKit          3D

 26 28  0  0  0  0  0  0  0  0999 V2000
   13.9870   -1.8410   22.0710 Cl  0  0  0  0  0  0  0  0  0  0  0  0
    9.0010    0.8260   21.2450 O   0  0  0  0  0  0  0  0  0  0  0  0
    3.2530    1.8500   25.4990 O   0  0  0  0  0  0  0  0  0  0  0  0
    4.7310    3.2810   24.1660 O   0  0  0  0  0  0  0  0  0  0  0  0
    6.6160    0.2570   17.7710 N   0  0  0  0  0  0  0  0  0  0  0  0
    3.3870    1.4780   23.0770 O   0  0  0  0  0  0  0  0  0  0  0  0
    8.5120   -0.1490   21.7350 C   0  0  0  0  0  0  0  0  0  0  0  0
    7.2470   -0.3060   18.8120 C   0  0  0  0  0  3  0  0  0  0  0  0
   12.1200    1.0000   24.1210 C   0  0  0  0  0  3  0  0  0  0  0  0
   13.1130    0.2430   23.5400 C   0  0  0  0  0  3  0  0  0  0  0  0
   10.7970    0.6460   23.9700 C   0  0  0  0  0  3  0  0  0  0  0  0
   11.4790   -1.2490   22.6090 C   0  0  0  0  0  3  0  0  0  0  0  0
    3.3070    1.9720   20.7680 C   0  0  0  0  0  3  0  0  0  0  0  0
   12.7720   -0.8760   22.7900 C   0  0  0  0  0  0  0  0  0  0  0  0
    3.9320    1.4020   21.8380 C   0  0  0  0  0  0  0  0  0  0  0  0
   10.5140   -0.4840   23.1800 C   0  0  0  0  0  0  0  0  0  0  0  0
    5.4960    0.9430   17.9570 C   0  0  0  0  0  3  0  0  0  0  0  0
    3.8090    1.8430   19.4900 C   0  0  0  0  0  3  0  0  0  0  0  0
    5.0730    0.6840   21.6290 C   0  0  0  0  0  3  0  0  0  0  0  0
    6.7910   -0.1910   20.1070 C   0  0  0  0  0  0  0  0  0  0  0  0
    4.9520    1.1310   19.2580 C   0  0  0  0  0  0  0  0  0  0  0  0
    5.5920    0.5470   20.3560 C   0  0  0  0  0  0  0  0  0  0  0  0
    7.4370   -0.7630   21.2200 N   0  0  0  0  0  2  0  0  0  0  0  0
    9.0720   -0.8350   22.9910 C   0  0  0  0  0  2  0  0  0  0  0  0
    5.4240    0.8420   24.7540 C   0  0  0  0  0  1  0  0  0  0  0  0
    4.2110    1.9550   24.4060 S   0  0  2  0  0  6  0  0  0  0  0  0
  1 14  1  0
 14 10  2  0
 14 12  1  0
 10  9  1  0
  9 11  2  0
 11 16  1  0
 12 16  2  0
 16 24  1  0
 24  7  1  0
  7  2  2  0
  7 23  1  0
 23 20  1  0
 20  8  2  0
 20 22  1  0
  8  5  1  0
  5 17  2  0
 17 21  1  0
 22 21  2  0
 22 19  1  0
 21 18  1  0
 18 13  2  0
 13 15  1  0
 19 15  2  0
 15  6  1  0
  6 26  1  0
 26  3  2  0
 26  4  2  0
 26 25  1  6
M  END
