predicted
     RDKit          3D

 31 35  0  0  0  0  0  0  0  0999 V2000
   13.8300   -1.9620   21.5280 Cl  0  0  0  0  0  0  0  0  0  0  0  0
    6.7110    3.2430   23.0480 O   0  0  0  0  0  0  0  0  0  0  0  0
    9.0600    1.4930   21.2060 O   0  0  0  0  0  0  0  0  0  0  0  0
    6.7060    0.2830   17.7440 N   0  0  0  0  0  0  0  0  0  0  0  0
    7.4710    3.7750   23.7690 C   0  0  0  0  0  0  0  0  0  0  0  0
    8.6760    0.4360   21.7030 C   0  0  0  0  0  0  0  0  0  0  0  0
    7.3670   -0.1520   18.7840 C   0  0  0  0  0  3  0  0  0  0  0  0
   13.4430    0.2430   23.0260 C   0  0  0  0  0  3  0  0  0  0  0  0
   12.6690    1.1530   23.6940 C   0  0  0  0  0  3  0  0  0  0  0  0
   11.4510   -0.9440   22.3280 C   0  0  0  0  0  3  0  0  0  0  0  0
    3.4130    2.2110   20.6520 C   0  0  0  0  0  3  0  0  0  0  0  0
    4.0750    1.7530   21.7480 C   0  0  0  0  0  3  0  0  0  0  0  0
   12.8330   -0.8150   22.3480 C   0  0  0  0  0  0  0  0  0  0  0  0
   11.2920    1.0320   23.6730 C   0  0  0  0  0  0  0  0  0  0  0  0
   10.6600   -0.0670   23.0540 C   0  0  0  0  0  0  0  0  0  0  0  0
    5.5680    0.9520   17.9110 C   0  0  0  0  0  3  0  0  0  0  0  0
    3.8950    1.9620   19.3770 C   0  0  0  0  0  3  0  0  0  0  0  0
    5.2200    1.0620   21.5950 C   0  0  0  0  0  3  0  0  0  0  0  0
    6.9500    0.0810   20.0940 C   0  0  0  0  0  0  0  0  0  0  0  0
    5.0570    1.2450   19.1890 C   0  0  0  0  0  0  0  0  0  0  0  0
    5.7400    0.7990   20.3100 C   0  0  0  0  0  0  0  0  0  0  0  0
    7.7660    5.0150   23.5870 N   0  0  0  0  0  2  0  0  0  0  0  0
    7.6980   -0.3250   21.1770 N   0  0  0  0  0  0  0  0  0  0  0  0
    7.0460    5.7950   22.6000 C   0  0  0  0  0  1  0  0  0  0  0  0
    7.5790   -1.5890   21.8710 C   0  0  0  0  0  2  0  0  0  0  0  0
    8.6650   -1.5430   22.9840 C   0  0  0  0  0  2  0  0  0  0  0  0
    8.2450    2.9660   24.7870 C   0  0  0  0  0  2  0  0  0  0  0  0
   10.4960    2.0630   24.4630 C   0  0  0  0  0  2  0  0  0  0  0  0
    8.5560    0.6330   24.1570 C   0  0  0  0  0  2  0  0  0  0  0  0
    9.1900   -0.1500   22.9870 C   0  0  2  0  0  0  0  0  0  0  0  0
    9.0310    2.0370   24.0590 N   0  0  0  0  0  3  0  0  0  0  0  0
  3  6  2  0
  6 23  1  0
  6 30  1  0
 23 19  1  0
 23 25  1  0
 19 21  1  0
 19  7  2  0
 21 18  2  0
 21 20  1  0
 18 12  1  0
 12 11  2  0
 11 17  1  0
 17 20  2  0
 20 16  1  0
 16  4  2  0
  4  7  1  0
 25 26  1  0
 30 26  1  1
 30 15  1  0
 30 29  1  0
 15 10  2  0
 15 14  1  0
 10 13  1  0
 13  1  1  0
 13  8  2  0
  8  9  1  0
  9 14  2  0
 14 28  1  0
 28 31  1  0
 29 31  1  0
 31 27  1  0
 27  5  1  0
  5  2  2  0
  5 22  1  0
 22 24  1  0
M  CHG  1  31   1
M  END
