predicted
     RDKit          3D

 17 18  0  0  0  0  0  0  0  0999 V2000
   11.4650   -0.9110   24.1830 O   0  0  0  0  0  0  0  0  0  0  0  0
   13.2140   -0.3880   22.6160 O   0  0  0  0  0  0  0  0  0  0  0  0
    9.5940   -2.4130   23.1130 N   0  0  0  0  0  0  0  0  0  0  0  0
    8.4550   -2.9860   23.4550 C   0  0  0  0  0  3  0  0  0  0  0  0
    9.5690   -1.2990   22.3200 C   0  0  0  0  0  0  0  0  0  0  0  0
    7.2240   -2.4740   23.0590 C   0  0  0  0  0  3  0  0  0  0  0  0
    8.3530   -0.7640   21.8700 C   0  0  0  0  0  3  0  0  0  0  0  0
    7.1750   -1.3570   22.2300 C   0  0  0  0  0  3  0  0  0  0  0  0
   10.7240    3.6430   22.7460 C   0  0  0  0  0  3  0  0  0  0  0  0
   12.0090    3.3770   24.7230 C   0  0  0  0  0  3  0  0  0  0  0  0
   10.9160    2.3190   22.4580 C   0  0  0  0  0  3  0  0  0  0  0  0
   12.1980    2.0510   24.4450 C   0  0  0  0  0  3  0  0  0  0  0  0
   11.2730    4.1950   23.8790 C   0  0  0  0  0  0  0  0  0  0  0  0
   11.6460    1.4970   23.3230 C   0  0  0  0  0  0  0  0  0  0  0  0
   11.1160    5.5230   24.1560 N   0  0  0  0  0  1  0  0  0  0  0  0
   10.7630   -0.6840   21.8970 N   0  0  0  0  0  2  0  0  0  0  0  0
   11.8400   -0.1950   23.0060 S   0  0  2  0  0  6  0  0  0  0  0  0
 15 13  1  0
 13  9  2  0
 13 10  1  0
  1 17  2  0
  9 11  1  0
  4  6  2  0
  4  3  1  0
 11 14  2  0
 14 12  1  0
 14 17  1  0
 12 10  2  0
  5  7  1  0
  5 16  1  0
  5  3  2  0
  7  8  2  0
  8  6  1  0
 17 16  1  6
  2 17  2  0
M  END
