predicted
     RDKit          3D

 18 19  0  0  0  0  0  0  0  0999 V2000
   13.5340   -1.7580   21.5840 Cl  0  0  0  0  0  0  0  0  0  0  0  0
    8.7790    1.0940   20.8190 O   0  0  0  0  0  0  0  0  0  0  0  0
    6.5980    0.5130   17.3300 N   0  0  0  0  0  0  0  0  0  0  0  0
    5.5060    1.2480   17.3270 N   0  0  0  0  0  0  0  0  0  0  0  0
    8.1960    0.2230   21.3680 C   0  0  0  0  0  0  0  0  0  0  0  0
    7.1290    0.0260   18.4630 C   0  0  0  0  0  3  0  0  0  0  0  0
    4.8540    1.5000   18.4570 C   0  0  0  0  0  3  0  0  0  0  0  0
   11.8230    1.1500   23.7700 C   0  0  0  0  0  3  0  0  0  0  0  0
   12.7860    0.3450   23.1420 C   0  0  0  0  0  3  0  0  0  0  0  0
   10.4680    0.8850   23.6170 C   0  0  0  0  0  3  0  0  0  0  0  0
   11.0280   -0.9970   22.1910 C   0  0  0  0  0  3  0  0  0  0  0  0
   12.3720   -0.7350   22.3600 C   0  0  0  0  0  0  0  0  0  0  0  0
    6.4820    0.2740   19.6660 C   0  0  0  0  0  0  0  0  0  0  0  0
    5.3250    1.0250   19.6380 C   0  0  0  0  0  0  0  0  0  0  0  0
   10.1040   -0.2100   22.8430 C   0  0  0  0  0  0  0  0  0  0  0  0
    7.0000   -0.2490   20.8730 N   0  0  0  0  0  2  0  0  0  0  0  0
    4.5750    1.3790   20.9050 C   0  0  0  0  0  1  0  0  0  0  0  0
    8.6210   -0.4600   22.6600 C   0  0  0  0  0  2  0  0  0  0  0  0
  1 12  1  0
 12  9  2  0
 12 11  1  0
  9  8  1  0
  8 10  2  0
 10 15  1  0
 11 15  2  0
 15 18  1  0
 18  5  1  0
  5  2  2  0
  5 16  1  0
 16 13  1  0
 13 14  2  0
 13  6  1  0
 14 17  1  0
 14  7  1  0
  6  3  2  0
  3  4  1  0
  4  7  2  0
M  END
