predicted
     RDKit          3D

 32 35  0  0  0  0  0  0  0  0999 V2000
   13.7090   -1.3090   21.7410 Cl  0  0  0  0  0  0  0  0  0  0  0  0
    8.8400    0.2800   21.4060 O   0  0  0  0  0  0  0  0  0  0  0  0
    6.5880   -4.2370   26.1450 O   0  0  0  0  0  0  0  0  0  0  0  0
    5.4050   -2.9440   24.5740 O   0  0  0  0  0  0  0  0  0  0  0  0
    6.5420    0.2230   17.5890 N   0  0  0  0  0  0  0  0  0  0  0  0
    5.5620   -5.4630   20.4490 O   0  0  0  0  0  1  0  0  0  0  0  0
    8.2460   -0.7690   21.5900 C   0  0  0  0  0  0  0  0  0  0  0  0
    7.0840   -0.4380   18.5800 C   0  0  0  0  0  3  0  0  0  0  0  0
   12.6060   -2.1160   24.0440 C   0  0  0  0  0  3  0  0  0  0  0  0
   11.5240   -2.4430   24.8640 C   0  0  0  0  0  3  0  0  0  0  0  0
   11.1020   -1.5690   22.3040 C   0  0  0  0  0  3  0  0  0  0  0  0
    3.2820    2.0430   20.5940 C   0  0  0  0  0  3  0  0  0  0  0  0
    3.8530    1.3820   21.6460 C   0  0  0  0  0  3  0  0  0  0  0  0
   12.3740   -1.6750   22.7760 C   0  0  0  0  0  0  0  0  0  0  0  0
   10.2080   -2.3080   24.3860 C   0  0  0  0  0  0  0  0  0  0  0  0
   10.0020   -1.8250   23.1050 C   0  0  0  0  0  0  0  0  0  0  0  0
    5.4670    0.9690   17.7980 C   0  0  0  0  0  3  0  0  0  0  0  0
    3.7990    1.9300   19.3240 C   0  0  0  0  0  3  0  0  0  0  0  0
    4.9420    0.5840   21.4590 C   0  0  0  0  0  3  0  0  0  0  0  0
    6.6130   -0.3710   19.8790 C   0  0  0  0  0  0  0  0  0  0  0  0
    4.9100    1.1190   19.0880 C   0  0  0  0  0  0  0  0  0  0  0  0
    5.4800    0.4420   20.1520 C   0  0  0  0  0  0  0  0  0  0  0  0
    7.1620   -1.1580   20.8860 N   0  0  0  0  0  2  0  0  0  0  0  0
    6.7150   -4.9620   23.7500 N   0  0  0  0  0  0  0  0  0  0  0  0
    7.8490   -2.7060   24.6010 N   0  0  0  0  0  0  0  0  0  0  0  0
    7.7680   -5.8900   24.0370 C   0  0  0  0  0  1  0  0  0  0  0  0
    9.0730   -2.6480   25.3150 C   0  0  0  0  0  2  0  0  0  0  0  0
    6.2740   -5.7740   21.4950 C   0  0  0  0  0  2  0  0  0  0  0  0
    5.7030   -5.2550   22.8420 C   0  0  0  0  0  2  0  0  0  0  0  0
    7.6650   -1.6700   23.7210 C   0  0  0  0  0  2  0  0  0  0  0  0
    8.6330   -1.7610   22.5970 C   0  0  0  0  0  3  0  0  0  0  0  0
    6.5920   -3.7070   24.8550 S   0  0  2  0  0  6  0  0  0  0  0  0
  1 14  1  0
 14 11  2  0
 14  9  1  0
 11 16  1  0
  9 10  2  0
 10 15  1  0
 15 27  1  0
 15 16  2  0
 27 25  1  0
 25 32  1  0
 25 30  1  0
 32  3  2  0
 32  4  2  0
 32 24  1  1
 24 29  1  0
 24 26  1  0
 29 28  1  0
 28  6  1  0
 16 31  1  0
 31 30  1  0
 31  7  1  0
  7  2  2  0
  7 23  1  0
 23 20  1  0
 20 22  1  0
 20  8  2  0
 22 19  2  0
 22 21  1  0
 19 13  1  0
 13 12  2  0
 12 18  1  0
 18 21  2  0
 21 17  1  0
 17  5  2  0
  5  8  1  0
M  END
