predicted
     RDKit          3D

 19 21  0  0  0  0  0  0  0  0999 V2000
    6.3130   -4.1030   20.3630 O   0  0  0  0  0  0  0  0  0  0  0  0
    7.1670   -3.2800   20.5020 C   0  0  0  0  0  0  0  0  0  0  0  0
   12.9770    0.4410   23.2400 C   0  0  0  0  0  3  0  0  0  0  0  0
    8.6460   -4.8210   26.1340 C   0  0  0  0  0  3  0  0  0  0  0  0
   11.7280    0.8440   23.7530 C   0  0  0  0  0  3  0  0  0  0  0  0
   13.0790   -0.7980   22.6110 C   0  0  0  0  0  3  0  0  0  0  0  0
    9.8260   -4.1170   26.1630 C   0  0  0  0  0  3  0  0  0  0  0  0
    7.7340   -4.6380   25.0690 C   0  0  0  0  0  3  0  0  0  0  0  0
   10.6100    0.0080   23.6210 C   0  0  0  0  0  3  0  0  0  0  0  0
   11.9530   -1.6270   22.4630 C   0  0  0  0  0  3  0  0  0  0  0  0
   10.1080   -3.2550   25.1120 C   0  0  0  0  0  3  0  0  0  0  0  0
    8.0390   -3.7390   24.0370 C   0  0  0  0  0  0  0  0  0  0  0  0
   10.7310   -1.2500   23.0320 C   0  0  0  0  0  0  0  0  0  0  0  0
    9.2350   -3.0400   24.0610 C   0  0  0  0  0  0  0  0  0  0  0  0
    7.5340   -2.8900   21.7480 N   0  0  0  0  0  0  0  0  0  0  0  0
    7.7910   -2.6190   19.2790 C   0  0  0  0  0  1  0  0  0  0  0  0
    7.0170   -3.5230   22.9170 C   0  0  0  0  0  2  0  0  0  0  0  0
    8.5450   -1.8610   21.9660 C   0  0  0  0  0  2  0  0  0  0  0  0
    9.5840   -2.1910   22.9180 C   0  0  0  0  0  3  0  0  0  0  0  0
  2 16  1  0
  2 15  1  0
  2  1  2  0
 17 12  1  0
 17 15  1  0
 12  8  1  0
 12 14  2  0
  8  4  2  0
  4  7  1  0
  7 11  2  0
 11 14  1  0
 14 19  1  0
 19 13  1  0
 19 18  1  0
 13  9  2  0
 13 10  1  0
  9  5  1  0
  5  3  2  0
  3  6  1  0
  6 10  2  0
 18 15  1  0
M  END
