predicted
     RDKit          3D

 31 35  0  0  0  0  0  0  0  0999 V2000
   13.8610   -1.2250   21.7320 Cl  0  0  0  0  0  0  0  0  0  0  0  0
    8.9910    0.4040   21.3590 O   0  0  0  0  0  0  0  0  0  0  0  0
    5.6580   -2.3870   25.3020 O   0  0  0  0  0  0  0  0  0  0  0  0
    6.1990   -3.6520   23.3340 O   0  0  0  0  0  0  0  0  0  0  0  0
    6.7160    0.3110   17.5000 N   0  0  0  0  0  0  0  0  0  0  0  0
    8.4150   -0.6380   21.5510 C   0  0  0  0  0  0  0  0  0  0  0  0
    7.2480   -0.3430   18.5140 C   0  0  0  0  0  3  0  0  0  0  0  0
   12.7700   -2.0440   24.0180 C   0  0  0  0  0  3  0  0  0  0  0  0
   11.6990   -2.3650   24.8080 C   0  0  0  0  0  3  0  0  0  0  0  0
   11.2800   -1.4500   22.2750 C   0  0  0  0  0  3  0  0  0  0  0  0
    3.3710    2.0060   20.4190 C   0  0  0  0  0  3  0  0  0  0  0  0
    3.9300    1.3400   21.4860 C   0  0  0  0  0  3  0  0  0  0  0  0
   12.5440   -1.5820   22.7490 C   0  0  0  0  0  0  0  0  0  0  0  0
   10.3840   -2.2100   24.3310 C   0  0  0  0  0  0  0  0  0  0  0  0
   10.1760   -1.7040   23.0640 C   0  0  0  0  0  0  0  0  0  0  0  0
    5.6250    1.0290   17.6760 C   0  0  0  0  0  3  0  0  0  0  0  0
    3.9160    1.9330   19.1640 C   0  0  0  0  0  3  0  0  0  0  0  0
    5.0410    0.5790   21.3260 C   0  0  0  0  0  3  0  0  0  0  0  0
    6.7680   -0.2900   19.8050 C   0  0  0  0  0  0  0  0  0  0  0  0
    5.0370    1.1560   18.9540 C   0  0  0  0  0  0  0  0  0  0  0  0
    5.6090    0.4720   20.0390 C   0  0  0  0  0  0  0  0  0  0  0  0
    7.3470   -1.0590   20.8390 N   0  0  0  0  0  2  0  0  0  0  0  0
    6.7330   -4.5870   25.5330 N   0  0  0  0  0  2  0  0  0  0  0  0
    7.9560   -2.4810   24.5320 N   0  0  0  0  0  0  0  0  0  0  0  0
    9.2060   -2.5530   25.2180 C   0  0  0  0  0  2  0  0  0  0  0  0
    5.8940   -6.0150   27.3310 C   0  0  0  0  0  2  0  0  0  0  0  0
    4.7510   -5.8080   26.3920 C   0  0  0  0  0  2  0  0  0  0  0  0
    5.7450   -4.6700   26.6710 C   0  0  0  0  0  3  0  0  0  0  0  0
    7.8570   -1.4700   23.7170 C   0  0  0  0  0  2  0  0  0  0  0  0
    8.8000   -1.6180   22.5640 C   0  0  0  0  0  3  0  0  0  0  0  0
    6.6070   -3.3050   24.6780 S   0  0  2  0  0  6  0  0  0  0  0  0
  3 31  2  0
 31  4  2  0
 31 23  1  6
 31 24  1  0
 23 28  1  0
 28 26  1  0
 28 27  1  0
 26 27  1  0
 24 25  1  0
 24 29  1  0
 25 14  1  0
 29 30  1  0
 30 15  1  0
 30  6  1  0
 15 14  2  0
 15 10  1  0
 14  9  1  0
  9  8  2  0
  8 13  1  0
 10 13  2  0
 13  1  1  0
  6  2  2  0
  6 22  1  0
 22 19  1  0
 19 21  1  0
 19  7  2  0
 21 18  2  0
 21 20  1  0
 18 12  1  0
 12 11  2  0
 11 17  1  0
 17 20  2  0
 20 16  1  0
 16  5  2  0
  5  7  1  0
M  END
