predicted
     RDKit          3D

 20 21  0  0  0  0  0  0  0  0999 V2000
    7.0970    0.7160   17.6680 O   0  0  0  0  0  0  0  0  0  0  0  0
    6.7280   -3.0980   22.4190 O   0  0  0  0  0  0  0  0  0  0  0  0
    7.6620    0.7150   21.7880 O   0  0  0  0  0  0  0  0  0  0  0  0
    6.1250    0.7520   18.3550 C   0  0  0  0  0  0  0  0  0  0  0  0
    7.5070   -2.6900   23.2170 C   0  0  0  0  0  0  0  0  0  0  0  0
    7.7600   -0.2960   21.1260 C   0  0  0  0  0  0  0  0  0  0  0  0
   12.8930   -0.0630   23.8160 C   0  0  0  0  0  3  0  0  0  0  0  0
   13.2060   -0.2650   22.5430 C   0  0  0  0  0  3  0  0  0  0  0  0
   11.6000   -0.3240   24.2590 C   0  0  0  0  0  3  0  0  0  0  0  0
   12.2390   -0.7310   21.6900 C   0  0  0  0  0  3  0  0  0  0  0  0
   10.6250   -0.8050   23.4160 C   0  0  0  0  0  0  0  0  0  0  0  0
   10.9760   -0.9770   22.0620 C   0  0  0  0  0  0  0  0  0  0  0  0
    6.1170    0.3390   19.5980 N   0  0  0  0  0  2  0  0  0  0  0  0
    7.0830   -0.5260   20.0270 N   0  0  0  0  0  2  0  0  0  0  0  0
    8.4610   -1.7890   22.8840 N   0  0  0  0  0  0  0  0  0  0  0  0
    4.8410    1.3610   17.8980 C   0  0  0  0  0  1  0  0  0  0  0  0
    7.4630   -3.2050   24.6320 C   0  0  0  0  0  1  0  0  0  0  0  0
    9.2100   -1.0640   23.8590 C   0  0  0  0  0  2  0  0  0  0  0  0
    9.9400   -1.4540   21.1130 C   0  0  0  0  0  2  0  0  0  0  0  0
    8.6010   -1.4910   21.5700 C   0  0  0  0  0  3  0  0  0  0  0  0
 17  5  1  0
  5  2  2  0
  5 15  1  0
 15 20  1  0
 15 18  1  0
 20  6  1  0
 20 19  1  0
  6  3  2  0
  6 14  1  0
 14 13  1  0
 13  4  1  0
  4  1  2  0
  4 16  1  0
 18 11  1  0
 11  9  2  0
 11 12  1  0
  9  7  1  0
  7  8  2  0
  8 10  1  0
 10 12  2  0
 12 19  1  0
M  END
