predicted
     RDKit          3D

 33 36  0  0  0  0  0  0  0  0999 V2000
   13.5770   -1.5590   21.6180 Cl  0  0  0  0  0  0  0  0  0  0  0  0
    2.8300   -0.1260   28.0510 N   0  0  0  0  0  0  0  0  0  0  0  0
    8.7770    0.1050   21.8090 O   0  0  0  0  0  0  0  0  0  0  0  0
    5.6440   -3.2950   25.3030 O   0  0  0  0  0  0  0  0  0  0  0  0
    7.0810   -4.5420   26.7160 O   0  0  0  0  0  0  0  0  0  0  0  0
    3.5750   -1.2660   27.9990 C   0  0  0  0  0  0  0  0  0  0  0  0
    6.5630    0.1360   17.9280 N   0  0  0  0  0  0  0  0  0  0  0  0
    8.2040   -0.9480   21.9810 C   0  0  0  0  0  0  0  0  0  0  0  0
    7.0760   -0.5440   18.9340 C   0  0  0  0  0  3  0  0  0  0  0  0
   12.6800   -2.7310   23.8880 C   0  0  0  0  0  3  0  0  0  0  0  0
   11.6830   -3.1430   24.7760 C   0  0  0  0  0  3  0  0  0  0  0  0
   11.0420   -1.7900   22.4470 C   0  0  0  0  0  3  0  0  0  0  0  0
    3.1960    1.7980   20.8460 C   0  0  0  0  0  3  0  0  0  0  0  0
    3.7330    1.1060   21.9060 C   0  0  0  0  0  3  0  0  0  0  0  0
   12.3430   -2.0520   22.7280 C   0  0  0  0  0  0  0  0  0  0  0  0
   10.3430   -2.8410   24.4890 C   0  0  0  0  0  0  0  0  0  0  0  0
   10.0160   -2.1370   23.3210 C   0  0  0  0  0  0  0  0  0  0  0  0
    5.4800    0.8530   18.1040 C   0  0  0  0  0  3  0  0  0  0  0  0
    3.7580    1.7430   19.5790 C   0  0  0  0  0  3  0  0  0  0  0  0
    4.8320    0.3370   21.7530 C   0  0  0  0  0  3  0  0  0  0  0  0
    6.5780   -0.5310   20.2260 C   0  0  0  0  0  0  0  0  0  0  0  0
    4.8850    0.9570   19.3760 C   0  0  0  0  0  0  0  0  0  0  0  0
    5.4270    0.2490   20.4620 C   0  0  0  0  0  0  0  0  0  0  0  0
    7.1250   -1.3240   21.2650 N   0  0  0  0  0  2  0  0  0  0  0  0
    6.6060   -2.1530   27.2890 N   0  0  0  0  0  0  0  0  0  0  0  0
    8.0380   -2.7520   25.1800 N   0  0  0  0  0  0  0  0  0  0  0  0
    7.4450   -1.0160   27.3010 C   0  0  0  0  0  1  0  0  0  0  0  0
    9.3340   -3.2690   25.4580 C   0  0  0  0  0  2  0  0  0  0  0  0
    4.8820   -1.1460   28.5980 C   0  0  0  0  0  2  0  0  0  0  0  0
    5.7120   -2.3980   28.3610 C   0  0  0  0  0  2  0  0  0  0  0  0
    7.8060   -1.7940   24.2270 C   0  0  0  0  0  2  0  0  0  0  0  0
    8.6150   -1.9330   23.0020 C   0  0  0  0  0  3  0  0  0  0  0  0
    6.8110   -3.2750   26.0950 S   0  0  2  0  0  6  0  0  0  0  0  0
  1 15  1  0
 15 12  2  0
 15 10  1  0
 12 17  1  0
 10 11  2  0
 11 16  1  0
 16 28  1  0
 16 17  2  0
 28 26  1  0
 26 33  1  0
 26 31  1  0
 33  4  2  0
 33  5  2  0
 33 25  1  6
 25 30  1  0
 25 27  1  0
 30 29  1  0
 29  6  1  0
  6  2  3  0
 17 32  1  0
 32 31  1  0
 32  8  1  0
  8  3  2  0
  8 24  1  0
 24 21  1  0
 21 23  1  0
 21  9  2  0
 23 20  2  0
 23 22  1  0
 20 14  1  0
 14 13  2  0
 13 19  1  0
 19 22  2  0
 22 18  1  0
 18  7  2  0
  7  9  1  0
M  END
