predicted
     RDKit          3D

 21 23  0  0  0  0  0  0  0  0999 V2000
   13.9000   -1.8930   21.9900 Cl  0  0  0  0  0  0  0  0  0  0  0  0
    8.9080    0.7330   21.2000 O   0  0  0  0  0  0  0  0  0  0  0  0
    6.4540    0.1970   17.7820 N   0  0  0  0  0  0  0  0  0  0  0  0
    3.7830    1.9260   19.3920 N   0  0  0  0  0  0  0  0  0  0  0  0
    8.3990   -0.2100   21.7070 C   0  0  0  0  0  0  0  0  0  0  0  0
    3.2870    2.1550   20.6170 C   0  0  0  0  0  3  0  0  0  0  0  0
    7.0720   -0.3400   18.8460 C   0  0  0  0  0  3  0  0  0  0  0  0
   11.9970    0.9360   24.0740 C   0  0  0  0  0  3  0  0  0  0  0  0
   13.0090    0.1850   23.4760 C   0  0  0  0  0  3  0  0  0  0  0  0
   10.6740    0.5630   23.9180 C   0  0  0  0  0  3  0  0  0  0  0  0
   11.3690   -1.3110   22.5340 C   0  0  0  0  0  3  0  0  0  0  0  0
    3.8470    1.6370   21.7240 C   0  0  0  0  0  3  0  0  0  0  0  0
   12.6800   -0.9370   22.7170 C   0  0  0  0  0  0  0  0  0  0  0  0
   10.3990   -0.5620   23.1370 C   0  0  0  0  0  0  0  0  0  0  0  0
    5.3830    0.9180   17.9490 C   0  0  0  0  0  3  0  0  0  0  0  0
    4.9450    0.8700   21.6100 C   0  0  0  0  0  3  0  0  0  0  0  0
    6.6290   -0.1750   20.1260 C   0  0  0  0  0  0  0  0  0  0  0  0
    4.8640    1.1800   19.2280 C   0  0  0  0  0  0  0  0  0  0  0  0
    5.4830    0.6120   20.3510 C   0  0  0  0  0  0  0  0  0  0  0  0
    7.2640   -0.7680   21.2380 N   0  0  0  0  0  2  0  0  0  0  0  0
    8.9520   -0.9260   22.9380 C   0  0  0  0  0  2  0  0  0  0  0  0
  2  5  2  0
  5 21  1  0
  5 20  1  0
 21 14  1  0
 14 10  2  0
 14 11  1  0
 10  8  1  0
  8  9  2  0
  9 13  1  0
 11 13  2  0
 13  1  1  0
 20 17  1  0
 17 19  1  0
 17  7  2  0
 19 16  2  0
 19 18  1  0
 16 12  1  0
 12  6  2  0
  6  4  1  0
  4 18  2  0
 18 15  1  0
 15  3  2  0
  3  7  1  0
M  END
