predicted
     RDKit          3D

 21 23  0  0  0  0  0  0  0  0999 V2000
    9.1760    1.0790   21.1170 O   0  0  0  0  0  0  0  0  0  0  0  0
    6.6850    0.2600   17.8260 N   0  0  0  0  0  0  0  0  0  0  0  0
    8.6680    0.1800   21.7320 C   0  0  0  0  0  0  0  0  0  0  0  0
    7.3260   -0.1740   18.8990 C   0  0  0  0  0  3  0  0  0  0  0  0
   12.5660    1.1180   23.7350 C   0  0  0  0  0  3  0  0  0  0  0  0
   13.3920    0.1720   23.1460 C   0  0  0  0  0  3  0  0  0  0  0  0
   11.1950    0.9470   23.7080 C   0  0  0  0  0  3  0  0  0  0  0  0
   11.5040   -1.1460   22.5030 C   0  0  0  0  0  3  0  0  0  0  0  0
    3.3520    2.1720   20.6130 C   0  0  0  0  0  3  0  0  0  0  0  0
    3.9900    1.7450   21.7190 C   0  0  0  0  0  3  0  0  0  0  0  0
   12.8580   -0.9520   22.5500 C   0  0  0  0  0  0  0  0  0  0  0  0
   10.7070   -0.2110   23.0910 C   0  0  0  0  0  0  0  0  0  0  0  0
    5.5740    0.9200   17.9430 C   0  0  0  0  0  3  0  0  0  0  0  0
    3.8520    1.9190   19.3640 C   0  0  0  0  0  3  0  0  0  0  0  0
    5.1540    1.0530   21.6140 C   0  0  0  0  0  3  0  0  0  0  0  0
    6.8810    0.0330   20.1740 C   0  0  0  0  0  0  0  0  0  0  0  0
    5.0240    1.2190   19.2110 C   0  0  0  0  0  0  0  0  0  0  0  0
    5.6800    0.7650   20.3610 C   0  0  0  0  0  0  0  0  0  0  0  0
    7.5580   -0.4400   21.3210 N   0  0  0  0  0  2  0  0  0  0  0  0
   13.7270   -1.9720   21.8980 C   0  0  0  0  0  1  0  0  0  0  0  0
    9.2310   -0.3850   23.0430 C   0  0  0  0  0  2  0  0  0  0  0  0
  1  3  2  0
  3 21  1  0
  3 19  1  0
 21 12  1  0
 12  7  2  0
 12  8  1  0
  7  5  1  0
  5  6  2  0
  6 11  1  0
  8 11  2  0
 11 20  1  0
 19 16  1  0
 16 18  1  0
 16  4  2  0
 18 15  2  0
 18 17  1  0
 15 10  1  0
 10  9  2  0
  9 14  1  0
 14 17  2  0
 17 13  1  0
 13  2  2  0
  2  4  1  0
M  END
