predicted
     RDKit          3D

 33 37  0  0  0  0  0  0  0  0999 V2000
   14.0250   -1.5070   21.1160 Cl  0  0  0  0  0  0  0  0  0  0  0  0
    9.2790    0.4290   21.4370 O   0  0  0  0  0  0  0  0  0  0  0  0
    6.2930   -2.9880   24.7260 O   0  0  0  0  0  0  0  0  0  0  0  0
    7.7570   -4.4040   25.9220 O   0  0  0  0  0  0  0  0  0  0  0  0
    6.8520    0.2270   17.6930 N   0  0  0  0  0  0  0  0  0  0  0  0
    5.8980   -0.5430   25.7870 O   0  0  0  0  0  0  0  0  0  0  0  0
    8.6940   -0.5960   21.7100 C   0  0  0  0  0  0  0  0  0  0  0  0
    7.4190   -0.3780   18.7260 C   0  0  0  0  0  3  0  0  0  0  0  0
   13.2390   -2.2120   23.5900 C   0  0  0  0  0  3  0  0  0  0  0  0
   12.2920   -2.4340   24.5590 C   0  0  0  0  0  3  0  0  0  0  0  0
   11.5380   -1.5310   22.0920 C   0  0  0  0  0  3  0  0  0  0  0  0
    3.4940    1.9260   20.5890 C   0  0  0  0  0  3  0  0  0  0  0  0
    4.0920    1.3180   21.6720 C   0  0  0  0  0  3  0  0  0  0  0  0
   12.8420   -1.7440   22.3590 C   0  0  0  0  0  0  0  0  0  0  0  0
   10.9340   -2.1790   24.3050 C   0  0  0  0  0  0  0  0  0  0  0  0
   10.5610   -1.7000   23.0560 C   0  0  0  0  0  0  0  0  0  0  0  0
    5.7400    0.9160   17.8480 C   0  0  0  0  0  3  0  0  0  0  0  0
    4.0250    1.8110   19.3260 C   0  0  0  0  0  3  0  0  0  0  0  0
    5.2220    0.5860   21.5290 C   0  0  0  0  0  3  0  0  0  0  0  0
    6.9600   -0.3040   20.0190 C   0  0  0  0  0  0  0  0  0  0  0  0
    5.1790    1.0650   19.1320 C   0  0  0  0  0  0  0  0  0  0  0  0
    5.7840    0.4360   20.2400 C   0  0  0  0  0  0  0  0  0  0  0  0
    7.5690   -1.0180   21.0860 N   0  0  0  0  0  2  0  0  0  0  0  0
    8.6210   -2.2460   24.9800 N   0  0  0  0  0  0  0  0  0  0  0  0
    6.1140    0.7390   25.3080 C   0  0  0  0  0  1  0  0  0  0  0  0
    9.9370   -2.3700   25.4250 C   0  0  0  0  0  2  0  0  0  0  0  0
    6.1350   -0.2870   28.1860 C   0  0  0  0  0  2  0  0  0  0  0  0
    5.8380   -0.3000   28.1250 C   0  0  0  0  0  2  0  0  0  0  0  0
    6.3210   -0.9660   27.1080 C   0  0  2  0  0  0  0  0  0  0  0  0
    8.4070   -1.2600   24.0450 C   0  0  0  0  0  2  0  0  0  0  0  0
    7.0160   -2.3100   27.1250 C   0  0  0  0  0  2  0  0  0  0  0  0
    9.1400   -1.5210   22.7760 C   0  0  0  0  0  3  0  0  0  0  0  0
    7.4010   -3.0700   25.6330 S   0  0  1  0  0  6  0  0  0  0  0  0
  1 14  1  0
 14 11  2  0
 14  9  1  0
 11 16  1  0
  9 10  2  0
 10 15  1  0
 15 26  1  0
 15 16  2  0
 26 24  1  0
 24 33  1  0
 24 30  1  0
 33  3  2  0
 33  4  2  0
 33 31  1  6
 29 31  1  6
 29 27  1  0
 29 28  1  0
 29  6  1  0
 27 28  1  0
  6 25  1  0
 16 32  1  0
 32 30  1  0
 32  7  1  0
  7  2  2  0
  7 23  1  0
 23 20  1  0
 20 22  1  0
 20  8  2  0
 22 19  2  0
 22 21  1  0
 19 13  1  0
 13 12  2  0
 12 18  1  0
 18 21  2  0
 21 17  1  0
 17  5  2  0
  5  8  1  0
M  END
