predicted
     RDKit          3D

 21 22  0  0  0  0  0  0  0  0999 V2000
   13.9690   -1.7310   21.8890 Cl  0  0  0  0  0  0  0  0  0  0  0  0
    9.1410    1.2120   21.0840 O   0  0  0  0  0  0  0  0  0  0  0  0
    6.7570    0.4190   17.6890 N   0  0  0  0  0  0  0  0  0  0  0  0
    8.6080    0.3150   21.6950 C   0  0  0  0  0  0  0  0  0  0  0  0
    5.6360    1.0810   17.7470 C   0  0  0  0  0  3  0  0  0  0  0  0
    7.3670   -0.0100   18.8180 C   0  0  0  0  0  3  0  0  0  0  0  0
   12.3890    1.2780   24.0440 C   0  0  0  0  0  3  0  0  0  0  0  0
   13.3220    0.4360   23.4300 C   0  0  0  0  0  3  0  0  0  0  0  0
    5.0330    1.3960   18.9710 C   0  0  0  0  0  3  0  0  0  0  0  0
   11.0340    1.0290   23.9120 C   0  0  0  0  0  3  0  0  0  0  0  0
   11.5320   -0.9060   22.5290 C   0  0  0  0  0  3  0  0  0  0  0  0
   12.8730   -0.6490   22.6820 C   0  0  0  0  0  0  0  0  0  0  0  0
    6.8000    0.2570   20.0810 C   0  0  0  0  0  0  0  0  0  0  0  0
    5.6400    0.9650   20.1530 C   0  0  0  0  0  0  0  0  0  0  0  0
   10.6290   -0.0700   23.1450 C   0  0  0  0  0  0  0  0  0  0  0  0
    7.4530   -0.2350   21.2670 N   0  0  0  0  0  2  0  0  0  0  0  0
    5.0330    1.3140   21.4780 C   0  0  1  0  0  0  0  0  0  0  0  0
    9.1480   -0.3140   23.0040 C   0  0  0  0  0  2  0  0  0  0  0  0
    5.9420    1.8620   22.2840 F   0  0  0  0  0  0  0  0  0  0  0  0
    4.0880    2.1960   21.3490 F   0  0  0  0  0  0  0  0  0  0  0  0
    4.5320    0.1920   22.0540 F   0  0  0  0  0  0  0  0  0  0  0  0
  1 12  1  0
 12  8  2  0
 12 11  1  0
  8  7  1  0
  7 10  2  0
 10 15  1  0
 11 15  2  0
 15 18  1  0
 18  4  1  0
  4  2  2  0
  4 16  1  0
 16 13  1  0
 13 14  2  0
 13  6  1  0
 14 17  1  0
 14  9  1  0
 17 19  1  1
 17 20  1  0
 17 21  1  0
  6  3  2  0
  3  5  1  0
  5  9  2  0
M  END
