predicted
     RDKit          3D

 23 26  0  0  0  0  0  0  0  0999 V2000
  -14.1730   -2.5930  -21.3250 Cl  0  0  0  0  0  0  0  0  0  0  0  0
   -9.5020    0.9210  -21.0820 O   0  0  0  0  0  0  0  0  0  0  0  0
   -6.9330    0.0910  -17.7280 N   0  0  0  0  0  0  0  0  0  0  0  0
   -9.0750   -0.1090  -21.5920 C   0  0  0  0  0  0  0  0  0  0  0  0
   -7.5960   -0.4140  -18.7500 C   0  0  0  0  0  3  0  0  0  0  0  0
  -12.9700    0.4000  -23.6440 C   0  0  0  0  0  3  0  0  0  0  0  0
  -13.7680   -0.4680  -22.9420 C   0  0  0  0  0  3  0  0  0  0  0  0
  -11.5960    0.2650  -23.5960 C   0  0  0  0  0  3  0  0  0  0  0  0
  -11.8270   -1.6120  -22.1160 C   0  0  0  0  0  3  0  0  0  0  0  0
   -3.7400    1.9970  -20.6940 C   0  0  0  0  0  3  0  0  0  0  0  0
   -4.3950    1.4950  -21.7760 C   0  0  0  0  0  3  0  0  0  0  0  0
  -13.1890   -1.4810  -22.1940 C   0  0  0  0  0  0  0  0  0  0  0  0
  -11.0540   -0.7640  -22.8280 C   0  0  0  0  0  0  0  0  0  0  0  0
   -5.8360    0.7850  -17.9240 C   0  0  0  0  0  3  0  0  0  0  0  0
   -4.2050    1.7900  -19.4240 C   0  0  0  0  0  3  0  0  0  0  0  0
   -5.5180    0.7660  -21.6130 C   0  0  0  0  0  3  0  0  0  0  0  0
   -7.2020   -0.2190  -20.0650 C   0  0  0  0  0  0  0  0  0  0  0  0
   -5.3430    1.0460  -19.2130 C   0  0  0  0  0  0  0  0  0  0  0  0
   -6.0260    0.5210  -20.3170 C   0  0  0  0  0  0  0  0  0  0  0  0
   -7.9730   -0.7320  -21.1490 N   0  0  0  0  0  0  0  0  0  0  0  0
   -7.7130   -1.9350  -21.8670 C   0  0  0  0  0  2  0  0  0  0  0  0
   -8.9220   -2.1860  -22.6790 C   0  0  0  0  0  2  0  0  0  0  0  0
   -9.5670   -0.8480  -22.7900 C   0  0  0  0  0  3  0  0  0  0  0  0
  2  4  2  0
  4 23  1  0
  4 20  1  0
 23 13  1  0
 23 22  1  0
 13  8  2  0
 13  9  1  0
  8  6  1  0
  6  7  2  0
  7 12  1  0
  9 12  2  0
 12  1  1  0
 20 21  1  0
 20 17  1  0
 21 22  1  0
 17 19  1  0
 17  5  2  0
 19 16  2  0
 19 18  1  0
 16 11  1  0
 11 10  2  0
 10 15  1  0
 15 18  2  0
 18 14  1  0
 14  3  2  0
  3  5  1  0
M  END
