predicted
     RDKit          3D

 19 20  0  0  0  0  0  0  0  0999 V2000
  -13.7850   -2.0660  -21.8310 Cl  0  0  0  0  0  0  0  0  0  0  0  0
   -8.8770    0.7490  -21.0380 O   0  0  0  0  0  0  0  0  0  0  0  0
   -6.3620    0.1190  -17.6570 N   0  0  0  0  0  0  0  0  0  0  0  0
   -8.3070   -0.1350  -21.5960 C   0  0  0  0  0  0  0  0  0  0  0  0
   -5.2460    0.8140  -17.7750 C   0  0  0  0  0  3  0  0  0  0  0  0
   -6.9890   -0.3670  -18.7550 C   0  0  0  0  0  3  0  0  0  0  0  0
  -12.0900    0.9730  -23.8420 C   0  0  0  0  0  3  0  0  0  0  0  0
  -13.0380    0.1340  -23.2580 C   0  0  0  0  0  3  0  0  0  0  0  0
   -4.7030    1.1000  -19.0350 C   0  0  0  0  0  3  0  0  0  0  0  0
  -10.7400    0.6980  -23.7300 C   0  0  0  0  0  3  0  0  0  0  0  0
  -11.3000   -1.2830  -22.4010 C   0  0  0  0  0  3  0  0  0  0  0  0
  -12.6360   -1.0050  -22.5530 C   0  0  0  0  0  0  0  0  0  0  0  0
   -6.4930   -0.1310  -20.0150 C   0  0  0  0  0  0  0  0  0  0  0  0
   -5.3280    0.5940  -20.1510 C   0  0  0  0  0  0  0  0  0  0  0  0
  -10.3630   -0.4470  -23.0020 C   0  0  0  0  0  0  0  0  0  0  0  0
   -7.1590   -0.6410  -21.1960 N   0  0  0  0  0  2  0  0  0  0  0  0
   -4.7880    0.9030  -21.5150 C   0  0  0  0  0  1  0  0  0  0  0  0
   -8.5500   -2.0570  -23.3080 C   0  0  0  0  0  1  0  0  0  0  0  0
   -8.9150   -0.7030  -22.8930 C   0  0  0  0  0  3  0  0  0  0  0  0
  1 12  1  0
 12  8  2  0
 12 11  1  0
  8  7  1  0
  7 10  2  0
 10 15  1  0
 11 15  2  0
 15 19  1  0
 19 18  1  0
 19  4  1  0
  4  2  2  0
  4 16  1  0
 16 13  1  0
 13 14  2  0
 13  6  1  0
 14 17  1  0
 14  9  1  0
  9  5  2  0
  5  3  1  0
  3  6  2  0
M  END
