predicted
     RDKit          3D

 21 22  0  0  0  0  0  0  0  0999 V2000
   13.8180   -1.8630   21.6970 Cl  0  0  0  0  0  0  0  0  0  0  0  0
    9.0940    1.2150   20.9780 O   0  0  0  0  0  0  0  0  0  0  0  0
    6.6060    0.3620   17.7420 N   0  0  0  0  0  0  0  0  0  0  0  0
    8.5580    0.3970   21.6530 C   0  0  0  0  0  0  0  0  0  0  0  0
    5.4040    0.8880   17.8250 C   0  0  0  0  0  3  0  0  0  0  0  0
    7.2720   -0.0050   18.8600 C   0  0  0  0  0  3  0  0  0  0  0  0
   12.5100    1.3650   23.7310 C   0  0  0  0  0  3  0  0  0  0  0  0
   13.3360    0.4180   23.1210 C   0  0  0  0  0  3  0  0  0  0  0  0
    4.7980    1.1270   19.0560 C   0  0  0  0  0  3  0  0  0  0  0  0
   11.1550    1.2280   23.6940 C   0  0  0  0  0  3  0  0  0  0  0  0
   11.4420   -0.8290   22.3780 C   0  0  0  0  0  3  0  0  0  0  0  0
   12.7900   -0.6730   22.4420 C   0  0  0  0  0  0  0  0  0  0  0  0
    6.7240    0.2010   20.1180 C   0  0  0  0  0  0  0  0  0  0  0  0
    5.4500    0.7410   20.1980 C   0  0  0  0  0  0  0  0  0  0  0  0
   10.6230    0.1060   23.0140 C   0  0  0  0  0  0  0  0  0  0  0  0
    7.4380   -0.1920   21.3210 N   0  0  0  0  0  2  0  0  0  0  0  0
    4.8150    0.9870   21.5470 C   0  0  0  0  0  1  0  0  0  0  0  0
    9.3110   -1.9320   24.4990 C   0  0  0  0  0  1  0  0  0  0  0  0
    7.2620   -0.7190   24.2110 C   0  0  0  0  0  1  0  0  0  0  0  0
    9.1800    0.0190   22.9910 C   0  0  0  0  0  3  0  0  0  0  0  0
    8.5540   -1.0770   23.6240 N   0  0  0  0  0  3  0  0  0  0  0  0
  1 12  1  0
 12  8  2  0
 12 11  1  0
  8  7  1  0
  7 10  2  0
 10 15  1  0
 11 15  2  0
 15 20  1  0
 20 21  1  0
 20  4  1  0
 21 18  1  0
 21 19  1  0
  4  2  2  0
  4 16  1  0
 16 13  1  0
 13 14  2  0
 13  6  1  0
 14 17  1  0
 14  9  1  0
  9  5  2  0
  5  3  1  0
  3  6  2  0
M  CHG  1  21   1
M  END
