predicted
     RDKit          3D

 33 37  0  0  0  0  0  0  0  0999 V2000
   13.9390   -1.5260   21.5340 Cl  0  0  0  0  0  0  0  0  0  0  0  0
    9.1460    0.4580   21.2390 O   0  0  0  0  0  0  0  0  0  0  0  0
    6.8320   -0.8860   26.8710 O   0  0  0  0  0  0  0  0  0  0  0  0
    5.8110   -1.6140   24.8620 O   0  0  0  0  0  0  0  0  0  0  0  0
    6.7540    0.2790   17.5620 N   0  0  0  0  0  0  0  0  0  0  0  0
    8.5300   -0.5290   21.5810 C   0  0  0  0  0  0  0  0  0  0  0  0
    7.3170   -0.3190   18.6100 C   0  0  0  0  0  3  0  0  0  0  0  0
   12.9740   -1.8490   23.9280 C   0  0  0  0  0  3  0  0  0  0  0  0
   11.9390   -1.9520   24.8480 C   0  0  0  0  0  3  0  0  0  0  0  0
   11.3810   -1.4570   22.2330 C   0  0  0  0  0  3  0  0  0  0  0  0
    3.3320    1.9180   20.4510 C   0  0  0  0  0  3  0  0  0  0  0  0
    3.9130    1.2950   21.5350 C   0  0  0  0  0  3  0  0  0  0  0  0
   12.6770   -1.6010   22.6240 C   0  0  0  0  0  0  0  0  0  0  0  0
   10.5990   -1.7900   24.4570 C   0  0  0  0  0  0  0  0  0  0  0  0
   10.3230   -1.4940   23.1340 C   0  0  0  0  0  0  0  0  0  0  0  0
    5.6370    0.9600   17.7190 C   0  0  0  0  0  3  0  0  0  0  0  0
    3.8900    1.8290   19.1900 C   0  0  0  0  0  3  0  0  0  0  0  0
    5.0530    0.5770   21.4000 C   0  0  0  0  0  3  0  0  0  0  0  0
    6.8150   -0.2710   19.8970 C   0  0  0  0  0  0  0  0  0  0  0  0
    5.0450    1.0930   19.0040 C   0  0  0  0  0  0  0  0  0  0  0  0
    5.6320    0.4630   20.1170 C   0  0  0  0  0  0  0  0  0  0  0  0
    7.4050   -0.9600   20.9770 N   0  0  0  0  0  2  0  0  0  0  0  0
    6.6860   -3.3440   26.2600 N   0  0  0  0  0  0  0  0  0  0  0  0
    8.2370   -1.6370   24.9640 N   0  0  0  0  0  0  0  0  0  0  0  0
    9.5220   -1.9190   25.4910 C   0  0  0  0  0  2  0  0  0  0  0  0
    6.2500   -4.3740   25.3790 C   0  0  0  0  0  2  0  0  0  0  0  0
    6.1390   -5.5830   28.9710 C   0  0  0  0  0  1  0  0  0  0  0  0
    6.8820   -3.6820   27.6100 C   0  0  0  0  0  2  0  0  0  0  0  0
    5.8990   -5.4960   26.4000 C   0  0  0  0  0  2  0  0  0  0  0  0
    8.0910   -0.9020   23.8930 C   0  0  0  0  0  2  0  0  0  0  0  0
    6.5290   -5.1470   27.6700 C   0  0  0  0  0  3  0  0  0  0  0  0
    8.9220   -1.3800   22.7210 C   0  0  0  0  0  3  0  0  0  0  0  0
    6.8690   -1.8350   25.7930 S   0  0  2  0  0  6  0  0  0  0  0  0
  1 13  1  0
 13 10  2  0
 13  8  1  0
 10 15  1  0
  8  9  2  0
  9 14  1  0
 14 25  1  0
 14 15  2  0
 25 24  1  0
 33 24  1  1
 24 30  1  0
 33  3  2  0
 33  4  2  0
 33 23  1  0
 23 26  1  0
 23 28  1  0
 26 29  1  0
 29 31  1  0
 28 31  1  0
 31 27  1  0
 15 32  1  0
 32 30  1  0
 32  6  1  0
  6  2  2  0
  6 22  1  0
 22 19  1  0
 19 21  1  0
 19  7  2  0
 21 18  2  0
 21 20  1  0
 18 12  1  0
 12 11  2  0
 11 17  1  0
 17 20  2  0
 20 16  1  0
 16  5  2  0
  5  7  1  0
M  END
