predicted
     RDKit          3D

 36 41  0  0  0  0  0  0  0  0999 V2000
   13.8750   -1.8450   21.8520 Cl  0  0  0  0  0  0  0  0  0  0  0  0
    8.0220    5.5990   26.1550 N   0  0  0  0  0  0  0  0  0  0  0  0
    9.1680    1.1620   21.5680 O   0  0  0  0  0  0  0  0  0  0  0  0
    9.4040    0.3190   28.0650 O   0  0  0  0  0  0  0  0  0  0  0  0
    7.3570    0.1760   26.8870 O   0  0  0  0  0  0  0  0  0  0  0  0
    7.5510    4.7100   26.6670 C   0  0  0  0  0  0  0  0  0  0  0  0
    6.8140    0.1490   18.0180 N   0  0  0  0  0  0  0  0  0  0  0  0
    8.7370    0.1190   22.0870 C   0  0  0  0  0  0  0  0  0  0  0  0
    7.4070   -0.3150   19.0970 C   0  0  0  0  0  3  0  0  0  0  0  0
   13.4760    0.2330   23.4750 C   0  0  0  0  0  3  0  0  0  0  0  0
   12.7020    1.0730   24.2360 C   0  0  0  0  0  3  0  0  0  0  0  0
   11.5190   -0.9470   22.7060 C   0  0  0  0  0  3  0  0  0  0  0  0
    3.5600    2.3460   20.7670 C   0  0  0  0  0  3  0  0  0  0  0  0
    4.1710    1.8910   21.9080 C   0  0  0  0  0  3  0  0  0  0  0  0
   12.8860   -0.7810   22.7090 C   0  0  0  0  0  0  0  0  0  0  0  0
   11.3150    0.8860   24.2530 C   0  0  0  0  0  0  0  0  0  0  0  0
   10.7120   -0.1030   23.4670 C   0  0  0  0  0  0  0  0  0  0  0  0
    5.7200    0.8850   18.1290 C   0  0  0  0  0  3  0  0  0  0  0  0
    4.0640    2.0260   19.5160 C   0  0  0  0  0  3  0  0  0  0  0  0
    5.2760    1.1120   21.8100 C   0  0  0  0  0  3  0  0  0  0  0  0
    6.9910   -0.0050   20.3870 C   0  0  0  0  0  0  0  0  0  0  0  0
    5.1820    1.2380   19.3810 C   0  0  0  0  0  0  0  0  0  0  0  0
    5.8120    0.7700   20.5540 C   0  0  0  0  0  0  0  0  0  0  0  0
    7.6470   -0.5250   21.5400 N   0  0  0  0  0  0  0  0  0  0  0  0
    9.3440    0.9160   25.6390 N   0  0  0  0  0  0  0  0  0  0  0  0
   10.4740    1.7530   25.2000 C   0  0  0  0  0  2  0  0  0  0  0  0
    7.1950   -1.8430   22.0320 C   0  0  0  0  0  2  0  0  0  0  0  0
    6.1580    2.8430   25.9710 C   0  0  0  0  0  2  0  0  0  0  0  0
    5.7430    3.2040   27.3990 C   0  0  0  0  0  2  0  0  0  0  0  0
    7.4600   -2.0660   23.5070 C   0  0  0  0  0  2  0  0  0  0  0  0
    7.1190    3.3370   26.8810 C   0  0  2  0  0  0  0  0  0  0  0  0
    8.5460    0.7290   24.3920 C   0  0  0  0  0  2  0  0  0  0  0  0
    8.8610   -1.6700   23.8500 C   0  0  0  0  0  2  0  0  0  0  0  0
    8.2200    2.6170   27.5420 C   0  0  0  0  0  2  0  0  0  0  0  0
    9.2370   -0.2470   23.4510 C   0  0  1  0  0  0  0  0  0  0  0  0
    8.5580    0.9240   27.0630 S   0  0  2  0  0  6  0  0  0  0  0  0
  2  6  3  0
 31  6  1  6
 31 28  1  0
 31 29  1  0
 31 34  1  0
 28 29  1  0
 36 34  1  1
 36  4  2  0
 36  5  2  0
 36 25  1  0
 25 26  1  0
 25 32  1  0
 26 16  1  0
 35 32  1  1
 35 17  1  0
 35  8  1  0
 35 33  1  0
 17 16  2  0
 17 12  1  0
 16 11  1  0
 11 10  2  0
 10 15  1  0
 12 15  2  0
 15  1  1  0
  8  3  2  0
  8 24  1  0
 24 27  1  0
 24 21  1  0
 27 30  1  0
 30 33  1  0
 21 23  1  0
 21  9  2  0
 23 20  2  0
 23 22  1  0
 20 14  1  0
 14 13  2  0
 13 19  1  0
 19 22  2  0
 22 18  1  0
 18  7  2  0
  7  9  1  0
M  END
