predicted
     RDKit          3D

 34 39  0  0  0  0  0  0  0  0999 V2000
   14.0170   -1.9530   21.4710 Cl  0  0  0  0  0  0  0  0  0  0  0  0
    6.2830    2.9440   24.4310 O   0  0  0  0  0  0  0  0  0  0  0  0
    9.1280    1.4830   21.3580 O   0  0  0  0  0  0  0  0  0  0  0  0
    6.7560    0.2540   17.8020 N   0  0  0  0  0  0  0  0  0  0  0  0
    7.4110    3.3000   24.2950 C   0  0  0  0  0  0  0  0  0  0  0  0
    8.7960    0.3830   21.8080 C   0  0  0  0  0  0  0  0  0  0  0  0
    7.4480   -0.1720   18.8440 C   0  0  0  0  0  3  0  0  0  0  0  0
   13.6130    0.2050   22.9970 C   0  0  0  0  0  3  0  0  0  0  0  0
   12.8570    1.0740   23.7170 C   0  0  0  0  0  3  0  0  0  0  0  0
   11.6230   -0.9740   22.3110 C   0  0  0  0  0  3  0  0  0  0  0  0
    3.4820    2.0950   20.7440 C   0  0  0  0  0  3  0  0  0  0  0  0
    4.1700    1.6540   21.8350 C   0  0  0  0  0  3  0  0  0  0  0  0
   12.9860   -0.8200   22.2920 C   0  0  0  0  0  0  0  0  0  0  0  0
   11.4820    0.9400   23.7410 C   0  0  0  0  0  0  0  0  0  0  0  0
   10.8330   -0.1410   23.0970 C   0  0  0  0  0  0  0  0  0  0  0  0
    5.6130    0.8920   17.9850 C   0  0  0  0  0  3  0  0  0  0  0  0
    3.9460    1.8490   19.4710 C   0  0  0  0  0  3  0  0  0  0  0  0
    5.3260    0.9900   21.6740 C   0  0  0  0  0  3  0  0  0  0  0  0
    7.0530    0.0410   20.1660 C   0  0  0  0  0  0  0  0  0  0  0  0
    5.1220    1.1680   19.2770 C   0  0  0  0  0  0  0  0  0  0  0  0
    5.8390    0.7320   20.3950 C   0  0  0  0  0  0  0  0  0  0  0  0
    7.7930    4.0990   23.2960 N   0  0  0  0  0  2  0  0  0  0  0  0
    7.8200   -0.3730   21.2470 N   0  0  0  0  0  0  0  0  0  0  0  0
    6.8180    4.7560   22.4230 C   0  0  0  0  0  2  0  0  0  0  0  0
    7.7410   -1.6650   21.9230 C   0  0  0  0  0  2  0  0  0  0  0  0
    5.6640    6.8770   21.8800 C   0  0  0  0  0  2  0  0  0  0  0  0
    7.0250    7.1890   21.6440 C   0  0  0  0  0  2  0  0  0  0  0  0
    6.7590    6.2440   22.7700 C   0  0  0  0  0  3  0  0  0  0  0  0
    8.8410   -1.6360   23.0170 C   0  0  0  0  0  2  0  0  0  0  0  0
    8.4780    2.7220   25.1340 C   0  0  0  0  0  2  0  0  0  0  0  0
   10.6940    1.9110   24.5840 C   0  0  0  0  0  2  0  0  0  0  0  0
    8.7650    0.4780   24.2990 C   0  0  0  0  0  2  0  0  0  0  0  0
    9.3620   -0.2360   23.0570 C   0  0  2  0  0  0  0  0  0  0  0  0
    9.2230    1.8630   24.3130 N   0  0  0  0  0  3  0  0  0  0  0  0
  3  6  2  0
  6 23  1  0
  6 33  1  0
 23 19  1  0
 23 25  1  0
 19 21  1  0
 19  7  2  0
 21 18  2  0
 21 20  1  0
 18 12  1  0
 12 11  2  0
 11 17  1  0
 17 20  2  0
 20 16  1  0
 16  4  2  0
  4  7  1  0
 25 29  1  0
 33 29  1  1
 33 15  1  0
 33 32  1  0
 15 14  1  0
 15 10  2  0
 14  9  2  0
 14 31  1  0
  9  8  1  0
  8 13  2  0
 10 13  1  0
 13  1  1  0
 32 34  1  0
 34 31  1  0
 34 30  1  0
 30  5  1  0
  5  2  2  0
  5 22  1  0
 22 24  1  0
 24 28  1  0
 28 26  1  0
 28 27  1  0
 26 27  1  0
M  CHG  1  34   1
M  END
