predicted
     RDKit          3D

 16 17  0  0  0  0  0  0  0  0999 V2000
  -17.0080    5.1160    4.6890 O   0  0  0  0  0  0  0  0  0  0  0  0
  -18.8380    3.5830    4.6320 O   0  0  0  0  0  0  0  0  0  0  0  0
  -19.4850    8.1240    2.7100 C   0  0  0  0  0  3  0  0  0  0  0  0
  -21.1870    6.4660    2.4770 C   0  0  0  0  0  3  0  0  0  0  0  0
  -18.7720    7.2580    3.5410 C   0  0  0  0  0  3  0  0  0  0  0  0
  -20.4810    5.6240    3.3030 C   0  0  0  0  0  3  0  0  0  0  0  0
  -20.6710    7.7170    2.1760 C   0  0  0  0  0  0  0  0  0  0  0  0
  -19.2860    6.0290    3.8390 C   0  0  0  0  0  0  0  0  0  0  0  0
  -21.4390    8.5060    1.2810 N   0  0  0  0  0  0  0  0  0  0  0  0
  -22.4470    9.3330    1.8770 C   0  0  0  0  0  2  0  0  0  0  0  0
  -20.7530    9.0230    0.1420 C   0  0  0  0  0  2  0  0  0  0  0  0
  -23.3170   10.0160    0.8740 C   0  0  0  0  0  2  0  0  0  0  0  0
  -21.6630    9.6770   -0.8400 C   0  0  0  0  0  2  0  0  0  0  0  0
  -18.7870    5.3360    6.5380 C   0  0  0  0  0  1  0  0  0  0  0  0
  -22.5880   10.5890   -0.2420 N   0  0  0  0  0  2  0  0  0  0  0  0
  -18.3900    4.9260    4.9030 S   0  0  2  0  0  6  0  0  0  0  0  0
  1 16  2  0
 16  2  2  0
 16 14  1  1
 16  8  1  0
  8  5  2  0
  8  6  1  0
  5  3  1  0
  3  7  2  0
  7  4  1  0
  7  9  1  0
  4  6  2  0
  9 10  1  0
  9 11  1  0
 10 12  1  0
 12 15  1  0
 15 13  1  0
 13 11  1  0
M  CHG  1  15   1
M  END
