predicted
     RDKit          3D

 24 27  0  0  0  0  0  0  0  0999 V2000
  -14.1560   -2.1690  -20.6470 Cl  0  0  0  0  0  0  0  0  0  0  0  0
   -9.5840    0.4650  -21.0210 O   0  0  0  0  0  0  0  0  0  0  0  0
   -3.9350    2.1810  -20.4660 N   0  0  0  0  0  0  0  0  0  0  0  0
   -7.1130    0.2230  -17.5700 N   0  0  0  0  0  0  0  0  0  0  0  0
  -10.7350   -0.8820  -25.2110 O   0  0  0  0  0  0  0  0  0  0  0  0
   -8.9650   -0.4540  -21.4960 C   0  0  0  0  0  0  0  0  0  0  0  0
   -4.4690    1.5880  -21.5270 C   0  0  0  0  0  3  0  0  0  0  0  0
   -7.6640   -0.3860  -18.6110 C   0  0  0  0  0  3  0  0  0  0  0  0
  -13.6720   -1.6540  -23.2350 C   0  0  0  0  0  3  0  0  0  0  0  0
  -12.8740   -1.3350  -24.3070 C   0  0  0  0  0  3  0  0  0  0  0  0
  -11.7880   -1.6630  -21.7700 C   0  0  0  0  0  3  0  0  0  0  0  0
  -13.1330   -1.7930  -21.9700 C   0  0  0  0  0  0  0  0  0  0  0  0
  -11.5100   -1.2150  -24.1210 C   0  0  0  0  0  0  0  0  0  0  0  0
  -10.9350   -1.3210  -22.8200 C   0  0  0  0  0  0  0  0  0  0  0  0
   -4.4410    2.0310  -19.2470 C   0  0  0  0  0  3  0  0  0  0  0  0
   -6.0510    0.9950  -17.7360 C   0  0  0  0  0  3  0  0  0  0  0  0
   -5.5520    0.7820  -21.4070 C   0  0  0  0  0  3  0  0  0  0  0  0
   -7.1840   -0.2500  -19.9090 C   0  0  0  0  0  0  0  0  0  0  0  0
   -5.5140    1.2150  -19.0220 C   0  0  0  0  0  0  0  0  0  0  0  0
   -6.0950    0.5760  -20.1130 C   0  0  0  0  0  0  0  0  0  0  0  0
   -7.8140   -0.9170  -21.0080 N   0  0  0  0  0  2  0  0  0  0  0  0
   -9.3650   -1.2330  -25.1670 C   0  0  0  0  0  2  0  0  0  0  0  0
   -8.7650   -0.7180  -23.9390 C   0  0  0  0  0  2  0  0  0  0  0  0
   -9.4530   -1.2420  -22.7110 C   0  0  0  0  0  3  0  0  0  0  0  0
  2  6  2  0
  6 24  1  0
  6 21  1  0
 24 14  1  0
 24 23  1  0
 14 11  2  0
 14 13  1  0
 11 12  1  0
 23 22  1  0
 22  5  1  0
  5 13  1  0
 13 10  2  0
 10  9  1  0
  9 12  2  0
 12  1  1  0
 21 18  1  0
 18  8  2  0
 18 20  1  0
  8  4  1  0
  4 16  2  0
 16 19  1  0
 19 20  2  0
 19 15  1  0
 20 17  1  0
 15  3  2  0
  3  7  1  0
  7 17  2  0
M  END
