predicted
     RDKit          3D

 19 20  0  0  0  0  0  0  0  0999 V2000
   13.9200   -1.9800   20.9670 Cl  0  0  0  0  0  0  0  0  0  0  0  0
    8.9550    1.3160   21.0490 O   0  0  0  0  0  0  0  0  0  0  0  0
    6.5400    0.3840   17.6760 N   0  0  0  0  0  0  0  0  0  0  0  0
    8.3250    0.5680   21.7300 C   0  0  0  0  0  0  0  0  0  0  0  0
    5.4160    1.0560   17.6930 C   0  0  0  0  0  3  0  0  0  0  0  0
    7.1360    0.0180   18.8570 C   0  0  0  0  0  3  0  0  0  0  0  0
   12.8600   -0.0440   24.2740 C   0  0  0  0  0  3  0  0  0  0  0  0
   13.6240   -0.5860   23.2590 C   0  0  0  0  0  3  0  0  0  0  0  0
    4.8330    1.4660   18.8790 C   0  0  0  0  0  3  0  0  0  0  0  0
   11.5220   -0.1640   24.2700 C   0  0  0  0  0  3  0  0  0  0  0  0
   11.6500   -1.4410   22.2360 C   0  0  0  0  0  3  0  0  0  0  0  0
   13.0010   -1.2980   22.2620 C   0  0  0  0  0  0  0  0  0  0  0  0
    6.5760    0.3660   20.0760 C   0  0  0  0  0  0  0  0  0  0  0  0
    5.4170    1.1050   20.0610 C   0  0  0  0  0  0  0  0  0  0  0  0
   10.9180   -0.8910   23.2320 C   0  0  0  0  0  0  0  0  0  0  0  0
    7.1540    0.0010   21.3280 N   0  0  0  0  0  2  0  0  0  0  0  0
    4.8330    1.5580   21.3590 C   0  0  0  0  0  1  0  0  0  0  0  0
    8.7430    0.2560   23.1400 C   0  0  0  0  0  2  0  0  0  0  0  0
    9.4310   -1.0550   23.2230 C   0  0  0  0  0  2  0  0  0  0  0  0
  1 12  1  0
 12  8  2  0
 12 11  1  0
  8  7  1  0
  7 10  2  0
 10 15  1  0
 11 15  2  0
 15 19  1  0
 19 18  1  0
 18  4  1  0
  4  2  2  0
  4 16  1  0
 16 13  1  0
 13 14  2  0
 13  6  1  0
 14 17  1  0
 14  9  1  0
  6  3  2  0
  3  5  1  0
  5  9  2  0
M  END
