predicted
     RDKit          3D

 30 33  0  0  0  0  0  0  0  0999 V2000
   13.9690   -1.0880   21.9770 Cl  0  0  0  0  0  0  0  0  0  0  0  0
    1.9880    2.8180   20.8410 Cl  0  0  0  0  0  0  0  0  0  0  0  0
    5.6130   -3.3980   22.8620 O   0  0  0  0  0  0  0  0  0  0  0  0
    9.1020    0.1900   21.3520 O   0  0  0  0  0  0  0  0  0  0  0  0
    6.7050    0.2220   17.5480 N   0  0  0  0  0  0  0  0  0  0  0  0
    6.1740   -4.2070   23.5420 C   0  0  0  0  0  0  0  0  0  0  0  0
    8.4970   -0.8260   21.5490 C   0  0  0  0  0  0  0  0  0  0  0  0
    7.2640   -0.4460   18.5520 C   0  0  0  0  0  3  0  0  0  0  0  0
   12.8470   -2.3840   23.9600 C   0  0  0  0  0  3  0  0  0  0  0  0
   11.7820   -2.8880   24.6490 C   0  0  0  0  0  3  0  0  0  0  0  0
   11.3670   -1.5210   22.3280 C   0  0  0  0  0  3  0  0  0  0  0  0
    3.9980    1.2560   21.6160 C   0  0  0  0  0  3  0  0  0  0  0  0
   12.6280   -1.6940   22.8060 C   0  0  0  0  0  0  0  0  0  0  0  0
    3.4030    1.9210   20.5550 C   0  0  0  0  0  0  0  0  0  0  0  0
   10.4830   -2.7030   24.1760 C   0  0  0  0  0  0  0  0  0  0  0  0
   10.2680   -1.9660   23.0190 C   0  0  0  0  0  0  0  0  0  0  0  0
    5.6070    0.9380   17.7420 C   0  0  0  0  0  3  0  0  0  0  0  0
    3.9150    1.8400   19.2780 C   0  0  0  0  0  3  0  0  0  0  0  0
    5.1100    0.4990   21.4120 C   0  0  0  0  0  3  0  0  0  0  0  0
    6.8030   -0.3780   19.8370 C   0  0  0  0  0  0  0  0  0  0  0  0
    5.0460    1.0640   19.0360 C   0  0  0  0  0  0  0  0  0  0  0  0
    5.6490    0.3810   20.1090 C   0  0  0  0  0  0  0  0  0  0  0  0
    7.3800   -1.1750   20.8600 N   0  0  0  0  0  2  0  0  0  0  0  0
    6.3010   -5.4570   23.1200 N   0  0  0  0  0  2  0  0  0  0  0  0
    5.7020   -5.8940   21.9020 C   0  0  0  0  0  1  0  0  0  0  0  0
    6.9540   -3.7920   24.7570 C   0  0  0  0  0  2  0  0  0  0  0  0
    9.3190   -3.2540   24.9720 C   0  0  0  0  0  2  0  0  0  0  0  0
    7.9000   -1.9610   23.6120 C   0  0  0  0  0  2  0  0  0  0  0  0
    8.8950   -1.8570   22.5060 C   0  0  0  0  0  3  0  0  0  0  0  0
    8.0590   -3.1710   24.2720 N   0  0  0  0  0  3  0  0  0  0  0  0
  1 13  1  0
 13 11  2  0
 13  9  1  0
 11 16  1  0
  9 10  2  0
 10 15  1  0
 15 27  1  0
 15 16  2  0
 27 30  1  0
 30 26  1  0
 30 28  1  0
 26  6  1  0
  6  3  2  0
  6 24  1  0
 24 25  1  0
 16 29  1  0
 29 28  1  0
 29  7  1  0
  7  4  2  0
  7 23  1  0
 23 20  1  0
 20 22  1  0
 20  8  2  0
 22 19  2  0
 22 21  1  0
 19 12  1  0
 12 14  2  0
 14  2  1  0
 14 18  1  0
 18 21  2  0
 21 17  1  0
 17  5  2  0
  5  8  1  0
M  CHG  1  30   1
M  END
