predicted
     RDKit          3D

 24 27  0  0  0  0  0  0  0  0999 V2000
  -13.9930   -3.1120  -24.5720 Cl  0  0  0  0  0  0  0  0  0  0  0  0
  -13.6720   -1.4330  -21.9580 Cl  0  0  0  0  0  0  0  0  0  0  0  0
   -8.8770   -0.0020  -21.0110 O   0  0  0  0  0  0  0  0  0  0  0  0
   -6.6700    0.0060  -17.2800 N   0  0  0  0  0  0  0  0  0  0  0  0
   -8.1660   -0.9150  -21.3760 C   0  0  0  0  0  0  0  0  0  0  0  0
   -5.5450    0.6730  -17.3210 C   0  0  0  0  0  3  0  0  0  0  0  0
   -7.1420   -0.6140  -18.3760 C   0  0  0  0  0  3  0  0  0  0  0  0
  -11.3020   -3.0950  -24.6210 C   0  0  0  0  0  3  0  0  0  0  0  0
   -4.8590    0.8150  -18.5230 C   0  0  0  0  0  3  0  0  0  0  0  0
  -11.0340   -1.6550  -22.2680 C   0  0  0  0  0  3  0  0  0  0  0  0
  -12.4180   -2.6900  -23.9370 C   0  0  0  0  0  0  0  0  0  0  0  0
  -12.2930   -1.9520  -22.7560 C   0  0  0  0  0  0  0  0  0  0  0  0
   -6.5000   -0.5140  -19.6080 C   0  0  0  0  0  0  0  0  0  0  0  0
  -10.0420   -2.8130  -24.1470 C   0  0  0  0  0  0  0  0  0  0  0  0
   -5.3020    0.1540  -19.6370 C   0  0  0  0  0  0  0  0  0  0  0  0
   -9.8760   -2.0560  -22.9540 C   0  0  0  0  0  0  0  0  0  0  0  0
   -7.0030   -1.2360  -20.7470 N   0  0  0  0  0  2  0  0  0  0  0  0
   -8.9680   -3.2390  -24.8650 N   0  0  0  0  0  2  0  0  0  0  0  0
   -7.7190   -2.9880  -24.4800 C   0  0  0  0  0  2  0  0  0  0  0  0
   -3.4070    1.1970  -21.0700 C   0  0  0  0  0  2  0  0  0  0  0  0
   -4.7060    1.6080  -21.6830 C   0  0  0  0  0  2  0  0  0  0  0  0
   -4.5450    0.2410  -20.9790 C   0  0  0  0  0  3  0  0  0  0  0  0
   -7.4690   -2.2230  -23.3540 C   0  0  0  0  0  2  0  0  0  0  0  0
   -8.5290   -1.7780  -22.5220 C   0  0  0  0  0  3  0  0  0  0  0  0
  2 12  1  0
 12 11  2  0
 12 10  1  0
 11  1  1  0
 11  8  1  0
 10 16  2  0
 16 14  1  0
 16 24  1  0
 14  8  2  0
 14 18  1  0
 24 23  1  0
 24  5  1  0
 23 19  1  0
 19 18  1  0
  5  3  2  0
  5 17  1  0
 17 13  1  0
 13 15  1  0
 13  7  2  0
 15 22  1  0
 15  9  2  0
 22 20  1  0
 22 21  1  0
 20 21  1  0
  9  6  1  0
  6  4  2  0
  4  7  1  0
M  END
