predicted
     RDKit          3D

 22 24  0  0  0  0  0  0  0  0999 V2000
   13.9380   -0.6870   21.3620 Cl  0  0  0  0  0  0  0  0  0  0  0  0
    8.5720   -0.1730   22.6890 O   0  0  0  0  0  0  0  0  0  0  0  0
    6.8490    0.6940   19.0240 N   0  0  0  0  0  0  0  0  0  0  0  0
    5.9610   -4.2810   19.4130 O   0  0  0  0  0  1  0  0  0  0  0  0
   10.7740   -3.7170   25.3030 O   0  0  0  0  0  0  0  0  0  0  0  0
    8.7140   -1.3450   22.4400 C   0  0  0  0  0  0  0  0  0  0  0  0
    5.9680   -0.0510   18.3440 C   0  0  0  0  0  3  0  0  0  0  0  0
    7.5770    0.1330   20.0100 C   0  0  0  0  0  3  0  0  0  0  0  0
   13.6460   -2.3110   23.5270 C   0  0  0  0  0  3  0  0  0  0  0  0
   12.9120   -3.0220   24.4500 C   0  0  0  0  0  3  0  0  0  0  0  0
    5.9930   -1.4370   18.4780 C   0  0  0  0  0  3  0  0  0  0  0  0
   11.6430   -1.5460   22.4630 C   0  0  0  0  0  3  0  0  0  0  0  0
   13.0160   -1.5810   22.5350 C   0  0  0  0  0  0  0  0  0  0  0  0
   11.5240   -3.0050   24.3770 C   0  0  0  0  0  0  0  0  0  0  0  0
    7.5960   -1.2480   20.2350 C   0  0  0  0  0  0  0  0  0  0  0  0
    6.6570   -2.0360   19.5360 C   0  0  0  0  0  0  0  0  0  0  0  0
   10.8550   -2.2280   23.3860 C   0  0  0  0  0  0  0  0  0  0  0  0
    8.3420   -1.8690   21.2550 N   0  0  0  0  0  2  0  0  0  0  0  0
    6.9450   -3.4810   19.5880 C   0  0  0  0  0  2  0  0  0  0  0  0
    9.3780   -3.7230   25.3040 C   0  0  0  0  0  2  0  0  0  0  0  0
    8.6290   -2.8000   24.4140 C   0  0  0  0  0  2  0  0  0  0  0  0
    9.3960   -2.2780   23.3740 C   0  0  0  0  0  3  0  0  0  0  0  0
  3  8  2  0
  3  7  1  0
 16 11  1  0
 16 15  2  0
 16 19  1  0
 10 14  2  0
 10  9  1  0
  2  6  2  0
 21 20  1  0
 21 22  1  0
 11  7  2  0
  6 18  1  0
  6 22  1  0
 15  8  1  0
 15 18  1  0
 14  5  1  0
 14 17  1  0
 13  9  2  0
 13 12  1  0
 13  1  1  0
 20  5  1  0
 12 17  2  0
 19  4  1  0
 22 17  1  0
M  END
