predicted
     RDKit          3D

 18 19  0  0  0  0  0  0  0  0999 V2000
    8.9670    1.0810   20.8770 O   0  0  0  0  0  0  0  0  0  0  0  0
    6.5330    0.3910   17.5230 N   0  0  0  0  0  0  0  0  0  0  0  0
    8.4390    0.2010   21.4800 C   0  0  0  0  0  0  0  0  0  0  0  0
    5.3950    1.0370   17.6250 C   0  0  0  0  0  3  0  0  0  0  0  0
    7.1610   -0.0690   18.6270 C   0  0  0  0  0  3  0  0  0  0  0  0
   12.2140    1.2030   23.6740 C   0  0  0  0  0  3  0  0  0  0  0  0
   13.1200    0.3580   23.0730 C   0  0  0  0  0  3  0  0  0  0  0  0
    4.8160    1.3080   18.8520 C   0  0  0  0  0  3  0  0  0  0  0  0
   10.8570    0.9550   23.5780 C   0  0  0  0  0  3  0  0  0  0  0  0
   11.3140   -1.0170   22.2640 C   0  0  0  0  0  3  0  0  0  0  0  0
   12.6500   -0.7530   22.3770 C   0  0  0  0  0  0  0  0  0  0  0  0
    6.6240    0.1370   19.8900 C   0  0  0  0  0  0  0  0  0  0  0  0
    5.4360    0.8340   19.9830 C   0  0  0  0  0  0  0  0  0  0  0  0
   10.4240   -0.1630   22.8840 C   0  0  0  0  0  0  0  0  0  0  0  0
    7.2720   -0.3500   21.0600 N   0  0  0  0  0  2  0  0  0  0  0  0
    4.8620    1.1350   21.3280 C   0  0  0  0  0  1  0  0  0  0  0  0
    8.9450   -0.4000   22.7750 C   0  0  0  0  0  2  0  0  0  0  0  0
   13.8040   -1.9280   21.5580 Br  0  0  0  0  0  0  0  0  0  0  0  0
 18 11  1  0
 11  7  2  0
 11 10  1  0
  7  6  1  0
  6  9  2  0
  9 14  1  0
 10 14  2  0
 14 17  1  0
 17  3  1  0
  3  1  2  0
  3 15  1  0
 15 12  1  0
 12 13  2  0
 12  5  1  0
 13 16  1  0
 13  8  1  0
  5  2  2  0
  2  4  1  0
  4  8  2  0
M  END
