predicted
     RDKit          3D

 20 22  0  0  0  0  0  0  0  0999 V2000
   -8.7170    0.6000  -20.8960 O   0  0  0  0  0  0  0  0  0  0  0  0
   -6.2100    0.2730  -17.5920 N   0  0  0  0  0  0  0  0  0  0  0  0
   -8.4190   -0.4950  -21.3410 C   0  0  0  0  0  0  0  0  0  0  0  0
   -6.7800   -0.4110  -18.5680 C   0  0  0  0  0  3  0  0  0  0  0  0
  -13.0590   -0.2020  -23.2590 C   0  0  0  0  0  3  0  0  0  0  0  0
  -12.8030   -1.3780  -22.5290 C   0  0  0  0  0  3  0  0  0  0  0  0
  -12.0080    0.6480  -23.6120 C   0  0  0  0  0  3  0  0  0  0  0  0
  -11.5030   -1.7060  -22.1700 C   0  0  0  0  0  3  0  0  0  0  0  0
  -10.7100    0.3070  -23.2360 C   0  0  0  0  0  3  0  0  0  0  0  0
   -3.0280    2.0300  -20.6910 C   0  0  0  0  0  3  0  0  0  0  0  0
   -3.6110    1.3350  -21.6960 C   0  0  0  0  0  3  0  0  0  0  0  0
  -10.4960   -0.8490  -22.5160 C   0  0  0  0  0  0  0  0  0  0  0  0
   -5.1570    1.0020  -17.8200 C   0  0  0  0  0  3  0  0  0  0  0  0
   -3.5270    1.9480  -19.4180 C   0  0  0  0  0  3  0  0  0  0  0  0
   -4.7020    0.5570  -21.4720 C   0  0  0  0  0  3  0  0  0  0  0  0
   -6.3660   -0.3650  -19.8730 C   0  0  0  0  0  0  0  0  0  0  0  0
   -4.6220    1.1460  -19.1240 C   0  0  0  0  0  0  0  0  0  0  0  0
   -5.2110    0.4320  -20.1840 C   0  0  0  0  0  0  0  0  0  0  0  0
   -9.1760   -1.2140  -22.1480 N   0  0  0  0  0  2  0  0  0  0  0  0
   -7.0820   -1.1510  -20.9630 C   0  0  0  0  0  2  0  0  0  0  0  0
  1  3  2  0
  3 19  1  0
  3 20  1  0
 19 12  1  0
 12  8  2  0
 12  9  1  0
  8  6  1  0
  6  5  2  0
  5  7  1  0
  7  9  2  0
 20 16  1  0
 16 18  1  0
 16  4  2  0
 18 15  2  0
 18 17  1  0
 15 11  1  0
 11 10  2  0
 10 14  1  0
 14 17  2  0
 17 13  1  0
 13  2  2  0
  2  4  1  0
M  END
