predicted
     RDKit          3D

 25 28  0  0  0  0  0  0  0  0999 V2000
  -14.1250   -1.9220  -21.1440 Cl  0  0  0  0  0  0  0  0  0  0  0  0
   -9.3980    0.1700  -21.3300 O   0  0  0  0  0  0  0  0  0  0  0  0
   -7.0860    0.1460  -17.6500 N   0  0  0  0  0  0  0  0  0  0  0  0
   -9.9920   -2.9890  -25.1140 O   0  0  0  0  0  0  0  0  0  0  0  0
   -8.8020   -0.8200  -21.6410 C   0  0  0  0  0  0  0  0  0  0  0  0
   -7.6540   -0.5670  -18.6600 C   0  0  0  0  0  3  0  0  0  0  0  0
  -13.1840   -2.8680  -23.4800 C   0  0  0  0  0  3  0  0  0  0  0  0
  -12.2130   -3.1310  -24.4070 C   0  0  0  0  0  3  0  0  0  0  0  0
  -11.6030   -1.8670  -22.0310 C   0  0  0  0  0  3  0  0  0  0  0  0
   -3.8610    1.8420  -20.7120 C   0  0  0  0  0  3  0  0  0  0  0  0
   -4.4140    1.1480  -21.7400 C   0  0  0  0  0  0  0  0  0  0  0  0
  -12.8880   -2.2280  -22.3090 C   0  0  0  0  0  0  0  0  0  0  0  0
  -10.9220   -2.7680  -24.1570 C   0  0  0  0  0  0  0  0  0  0  0  0
  -10.5920   -2.0870  -22.9550 C   0  0  0  0  0  0  0  0  0  0  0  0
   -6.0040    0.8940  -17.8640 C   0  0  0  0  0  3  0  0  0  0  0  0
   -4.3520    1.7970  -19.4270 C   0  0  0  0  0  3  0  0  0  0  0  0
   -5.5130    0.3720  -21.5200 C   0  0  0  0  0  3  0  0  0  0  0  0
   -7.1660   -0.4980  -19.9370 C   0  0  0  0  0  0  0  0  0  0  0  0
   -5.4560    1.0110  -19.1620 C   0  0  0  0  0  0  0  0  0  0  0  0
   -6.0400    0.2830  -20.2220 C   0  0  0  0  0  0  0  0  0  0  0  0
   -7.7910   -1.2580  -20.9920 N   0  0  0  0  0  2  0  0  0  0  0  0
   -8.6540   -2.7570  -24.9100 C   0  0  0  0  0  2  0  0  0  0  0  0
   -8.3450   -1.7280  -23.9310 C   0  0  0  0  0  2  0  0  0  0  0  0
   -9.1980   -1.7800  -22.7590 C   0  0  0  0  0  3  0  0  0  0  0  0
   -3.9060    1.2070  -22.9470 F   0  0  0  0  0  0  0  0  0  0  0  0
  1 12  1  0
 12  7  2  0
 12  9  1  0
  7  8  1  0
  8 13  2  0
  9 14  2  0
 14 13  1  0
 14 24  1  0
 13  4  1  0
  4 22  1  0
 22 23  1  0
 23 24  1  0
 24  5  1  0
  5  2  2  0
  5 21  1  0
 21 18  1  0
 18  6  2  0
 18 20  1  0
  6  3  1  0
  3 15  2  0
 15 19  1  0
 20 17  2  0
 20 19  1  0
 17 11  1  0
 11 25  1  0
 11 10  2  0
 19 16  2  0
 16 10  1  0
M  END
