predicted
     RDKit          3D

 26 30  0  0  0  0  0  0  0  0999 V2000
   13.9660   -2.0250   21.4160 Cl  0  0  0  0  0  0  0  0  0  0  0  0
    9.3100    1.3970   21.6560 O   0  0  0  0  0  0  0  0  0  0  0  0
    6.8890    0.2030   18.0610 N   0  0  0  0  0  0  0  0  0  0  0  0
   11.0250    1.2620   25.2100 O   0  0  0  0  0  0  0  0  0  0  0  0
    8.9000    0.3240   22.0880 C   0  0  0  0  0  0  0  0  0  0  0  0
    7.5620   -0.2250   19.1030 C   0  0  0  0  0  3  0  0  0  0  0  0
   13.7290   -0.1860   23.3490 C   0  0  0  0  0  3  0  0  0  0  0  0
   13.0360    0.5700   24.2400 C   0  0  0  0  0  3  0  0  0  0  0  0
   11.6650   -1.1170   22.4330 C   0  0  0  0  0  3  0  0  0  0  0  0
    3.5110    1.9980   20.9500 C   0  0  0  0  0  3  0  0  0  0  0  0
    4.2090    1.5950   22.0650 C   0  0  0  0  0  3  0  0  0  0  0  0
   13.0570   -1.0540   22.4550 C   0  0  0  0  0  0  0  0  0  0  0  0
   11.6630    0.5240   24.2300 C   0  0  0  0  0  0  0  0  0  0  0  0
   10.9470   -0.3390   23.3500 C   0  0  0  0  0  0  0  0  0  0  0  0
    5.7050    0.8250   18.2140 C   0  0  0  0  0  3  0  0  0  0  0  0
    3.9830    1.7530   19.6770 C   0  0  0  0  0  3  0  0  0  0  0  0
    5.3970    0.9530   21.9220 C   0  0  0  0  0  3  0  0  0  0  0  0
    7.1560    0.0500   20.4330 C   0  0  0  0  0  0  0  0  0  0  0  0
    5.1890    1.1060   19.5020 C   0  0  0  0  0  0  0  0  0  0  0  0
    5.8990    0.6890   20.6340 C   0  0  0  0  0  0  0  0  0  0  0  0
    7.8980   -0.3940   21.5430 N   0  0  0  0  0  0  0  0  0  0  0  0
    9.6500    1.6070   24.9480 C   0  0  0  0  0  2  0  0  0  0  0  0
    7.7470   -1.6960   22.2300 C   0  0  0  0  0  2  0  0  0  0  0  0
    8.8640    0.3560   24.6120 C   0  0  0  0  0  2  0  0  0  0  0  0
    8.8720   -1.7470   23.3230 C   0  0  0  0  0  2  0  0  0  0  0  0
    9.4550   -0.3420   23.3600 C   0  0  1  0  0  0  0  0  0  0  0  0
  2  5  2  0
  5 26  1  0
  5 21  1  0
 26 24  1  6
 26 14  1  0
 26 25  1  0
 24 22  1  0
 22  4  1  0
  4 13  1  0
 14 13  2  0
 14  9  1  0
 13  8  1  0
  8  7  2  0
  7 12  1  0
  9 12  2  0
 12  1  1  0
 21 23  1  0
 21 18  1  0
 23 25  1  0
 18 20  1  0
 18  6  2  0
 20 17  2  0
 20 19  1  0
 17 11  1  0
 11 10  2  0
 10 16  1  0
 16 19  2  0
 19 15  1  0
 15  3  2  0
  3  6  1  0
M  END
