# created with PyMOL 3.1.3.1
@<TRIPOS>MOLECULE
predicted
30 33 1                 
SMALL
USER_CHARGES
@<TRIPOS>ATOM
1	CL24	13.969	-1.088	21.977	Cl	1	LIG1	0.000	
2	CL25	1.988	2.818	20.841	Cl	1	LIG1	0.000	
3	 O22	5.613	-3.398	22.862	O.2	1	LIG1	0.000	
4	 O23	9.102	0.190	21.352	O.2	1	LIG1	0.000	
5	 N26	6.705	0.222	17.548	N.2	1	LIG1	0.000	
6	 C27	6.174	-4.207	23.542	C.2	1	LIG1	0.000	
7	 C28	8.497	-0.826	21.549	C.2	1	LIG1	0.000	
8	 C29	7.264	-0.446	18.552	C.2	1	LIG1	0.000	
9	 C30	12.847	-2.384	23.960	C.2	1	LIG1	0.000	
10	 C31	11.782	-2.888	24.649	C.2	1	LIG1	0.000	
11	 C32	11.367	-1.521	22.328	C.2	1	LIG1	0.000	
12	 C33	3.998	1.256	21.616	C.2	1	LIG1	0.000	
13	 C34	12.628	-1.694	22.806	C.2	1	LIG1	0.000	
14	 C35	3.403	1.921	20.555	C.2	1	LIG1	0.000	
15	 C36	10.483	-2.703	24.176	C.2	1	LIG1	0.000	
16	 C37	10.268	-1.966	23.019	C.2	1	LIG1	0.000	
17	 C38	5.607	0.938	17.742	C.2	1	LIG1	0.000	
18	 C39	3.915	1.840	19.278	C.2	1	LIG1	0.000	
19	 C40	5.110	0.499	21.412	C.2	1	LIG1	0.000	
20	 C41	6.803	-0.378	19.837	C.2	1	LIG1	0.000	
21	 C42	5.046	1.064	19.036	C.2	1	LIG1	0.000	
22	 C43	5.649	0.381	20.109	C.2	1	LIG1	0.000	
23	 N44	7.380	-1.175	20.860	N.pl3	1	LIG1	0.000	
24	 N45	6.301	-5.457	23.120	N.pl3	1	LIG1	0.000	
25	 C46	5.702	-5.894	21.902	C.3	1	LIG1	0.000	
26	 C47	6.954	-3.792	24.757	C.3	1	LIG1	0.000	
27	 C48	9.319	-3.254	24.972	C.3	1	LIG1	0.000	
28	 C49	7.900	-1.961	23.612	C.3	1	LIG1	0.000	
29	 C50	8.895	-1.857	22.506	C.3	1	LIG1	0.000	
30	 N51	8.059	-3.171	24.272	N.3	1	LIG1	0.000	
@<TRIPOS>BOND
1 5 17 ar
2 3 6 2
3 6 26 1
4 4 7 2
5 7 23 1
6 5 8 ar
7 9 13 ar
8 9 10 ar
9 11 16 ar
10 12 19 ar
11 1 13 1
12 11 13 ar
13 2 14 1
14 12 14 ar
15 10 15 ar
16 15 16 ar
17 16 29 1
18 17 21 ar
19 14 18 ar
20 19 22 ar
21 8 20 ar
22 20 22 ar
23 18 21 ar
24 21 22 ar
25 20 23 1
26 6 24 1
27 24 25 1
28 26 30 1
29 15 27 1
30 7 29 1
31 28 29 1
32 27 30 1
33 28 30 1
@<TRIPOS>SUBSTRUCTURE
1	LIG1	1	GROUP	1 C	LIG
